version 3
run HeavyTraffic-0-20260310-05:38:12-33244
attr configname HeavyTraffic
attr datetime 20260310-05:38:12
attr datetimef 20260310-053812
attr experiment HeavyTraffic
attr inifile omnetpp.ini
attr iterationvars ""
attr iterationvarsd ""
attr iterationvarsf ""
attr measurement ""
attr network DNP3NetworkTopology
attr processid 33244
attr repetition 0
attr replication #0
attr resultdir results
attr runnumber 0
attr seedset 0
config image-path ../../inet4.5/images
config description "Heavy burst traffic scenario"
config *.numMeters 50
config *.distAuto.numMeters 50
config **.eventInterval 1s
config **.eventBytes 542
config network DNP3NetworkTopology
config sim-time-limit 350s
config output-scalar-file HeavyTraffic.sca
config output-vector-file HeavyTraffic.vec
config **.scalar-recording true
config **.vector-recording true
config **.result-recording-modes all
config *.distAuto.processingDelay 10ms
config **.totalPackets 500
config **.ackTimeout 2s
config **.stopGenerationTime 300s
config *.meter[*].meterId index

par DNP3NetworkTopology.meter[0].interface$o.channel typename "\"ned.DatarateChannel\""
par DNP3NetworkTopology.meter[0].interface$o.channel disabled false
attr mutable ""
par DNP3NetworkTopology.meter[0].interface$o.channel delay 0.002s
attr mutable ""
attr unit s
par DNP3NetworkTopology.meter[0].interface$o.channel datarate 65000bps
attr mutable ""
attr unit bps
par DNP3NetworkTopology.meter[0].interface$o.channel ber 0
attr mutable ""
par DNP3NetworkTopology.meter[0].interface$o.channel per 0
attr mutable ""
scalar DNP3NetworkTopology.meter[0].interface$o.channel packetsDiscarded:count 1
attr interpolationmode none
attr recordingmode count
attr source constant1(messageDiscarded)
scalar DNP3NetworkTopology.meter[0].interface$o.channel packets:count 599
attr interpolationmode none
attr recordingmode count
attr source constant1(messageSent)
scalar DNP3NetworkTopology.meter[0].interface$o.channel packetBytes:sum 179400
attr interpolationmode none
attr recordingmode sum
attr source packetBytes(messageSent)
attr unit B
scalar DNP3NetworkTopology.meter[0].interface$o.channel throughput:last 4796.3450542705
attr recordingmode last
attr source sumPerDuration(packetBits(messageSent))
attr unit bps
scalar DNP3NetworkTopology.meter[0].interface$o.channel utilization:last 0.073788163601038
attr recordingmode last
attr source timeavg(channelBusy)
par DNP3NetworkTopology.Concatenator.MeterInterface$o[0].channel typename "\"ned.DatarateChannel\""
par DNP3NetworkTopology.Concatenator.MeterInterface$o[0].channel disabled false
attr mutable ""
par DNP3NetworkTopology.Concatenator.MeterInterface$o[0].channel delay 0.002s
attr mutable ""
attr unit s
par DNP3NetworkTopology.Concatenator.MeterInterface$o[0].channel datarate 65000bps
attr mutable ""
attr unit bps
par DNP3NetworkTopology.Concatenator.MeterInterface$o[0].channel ber 0
attr mutable ""
par DNP3NetworkTopology.Concatenator.MeterInterface$o[0].channel per 0
attr mutable ""
scalar DNP3NetworkTopology.Concatenator.MeterInterface$o[0].channel packetsDiscarded:count 1
attr interpolationmode none
attr recordingmode count
attr source constant1(messageDiscarded)
scalar DNP3NetworkTopology.Concatenator.MeterInterface$o[0].channel packets:count 599
attr interpolationmode none
attr recordingmode count
attr source constant1(messageSent)
scalar DNP3NetworkTopology.Concatenator.MeterInterface$o[0].channel packetBytes:sum 37674
attr interpolationmode none
attr recordingmode sum
attr source packetBytes(messageSent)
attr unit B
scalar DNP3NetworkTopology.Concatenator.MeterInterface$o[0].channel throughput:last 1007.2632233608
attr recordingmode last
attr source sumPerDuration(packetBits(messageSent))
attr unit bps
scalar DNP3NetworkTopology.Concatenator.MeterInterface$o[0].channel utilization:last 0.015495987593963
attr recordingmode last
attr source timeavg(channelBusy)
par DNP3NetworkTopology.meter[1].interface$o.channel typename "\"ned.DatarateChannel\""
par DNP3NetworkTopology.meter[1].interface$o.channel disabled false
attr mutable ""
par DNP3NetworkTopology.meter[1].interface$o.channel delay 0.002s
attr mutable ""
attr unit s
par DNP3NetworkTopology.meter[1].interface$o.channel datarate 65000bps
attr mutable ""
attr unit bps
par DNP3NetworkTopology.meter[1].interface$o.channel ber 0
attr mutable ""
par DNP3NetworkTopology.meter[1].interface$o.channel per 0
attr mutable ""
scalar DNP3NetworkTopology.meter[1].interface$o.channel packetsDiscarded:count 1
attr interpolationmode none
attr recordingmode count
attr source constant1(messageDiscarded)
scalar DNP3NetworkTopology.meter[1].interface$o.channel packets:count 599
attr interpolationmode none
attr recordingmode count
attr source constant1(messageSent)
scalar DNP3NetworkTopology.meter[1].interface$o.channel packetBytes:sum 179400
attr interpolationmode none
attr recordingmode sum
attr source packetBytes(messageSent)
attr unit B
scalar DNP3NetworkTopology.meter[1].interface$o.channel throughput:last 4795.8021308786
attr recordingmode last
attr source sumPerDuration(packetBits(messageSent))
attr unit bps
scalar DNP3NetworkTopology.meter[1].interface$o.channel utilization:last 0.07377981133196
attr recordingmode last
attr source timeavg(channelBusy)
par DNP3NetworkTopology.Concatenator.MeterInterface$o[1].channel typename "\"ned.DatarateChannel\""
par DNP3NetworkTopology.Concatenator.MeterInterface$o[1].channel disabled false
attr mutable ""
par DNP3NetworkTopology.Concatenator.MeterInterface$o[1].channel delay 0.002s
attr mutable ""
attr unit s
par DNP3NetworkTopology.Concatenator.MeterInterface$o[1].channel datarate 65000bps
attr mutable ""
attr unit bps
par DNP3NetworkTopology.Concatenator.MeterInterface$o[1].channel ber 0
attr mutable ""
par DNP3NetworkTopology.Concatenator.MeterInterface$o[1].channel per 0
attr mutable ""
scalar DNP3NetworkTopology.Concatenator.MeterInterface$o[1].channel packetsDiscarded:count 1
attr interpolationmode none
attr recordingmode count
attr source constant1(messageDiscarded)
scalar DNP3NetworkTopology.Concatenator.MeterInterface$o[1].channel packets:count 599
attr interpolationmode none
attr recordingmode count
attr source constant1(messageSent)
scalar DNP3NetworkTopology.Concatenator.MeterInterface$o[1].channel packetBytes:sum 37674
attr interpolationmode none
attr recordingmode sum
attr source packetBytes(messageSent)
attr unit B
scalar DNP3NetworkTopology.Concatenator.MeterInterface$o[1].channel throughput:last 1007.1492024846
attr recordingmode last
attr source sumPerDuration(packetBits(messageSent))
attr unit bps
scalar DNP3NetworkTopology.Concatenator.MeterInterface$o[1].channel utilization:last 0.015494233510327
attr recordingmode last
attr source timeavg(channelBusy)
par DNP3NetworkTopology.meter[2].interface$o.channel typename "\"ned.DatarateChannel\""
par DNP3NetworkTopology.meter[2].interface$o.channel disabled false
attr mutable ""
par DNP3NetworkTopology.meter[2].interface$o.channel delay 0.002s
attr mutable ""
attr unit s
par DNP3NetworkTopology.meter[2].interface$o.channel datarate 65000bps
attr mutable ""
attr unit bps
par DNP3NetworkTopology.meter[2].interface$o.channel ber 0
attr mutable ""
par DNP3NetworkTopology.meter[2].interface$o.channel per 0
attr mutable ""
scalar DNP3NetworkTopology.meter[2].interface$o.channel packetsDiscarded:count 1
attr interpolationmode none
attr recordingmode count
attr source constant1(messageDiscarded)
scalar DNP3NetworkTopology.meter[2].interface$o.channel packets:count 561
attr interpolationmode none
attr recordingmode count
attr source constant1(messageSent)
scalar DNP3NetworkTopology.meter[2].interface$o.channel packetBytes:sum 170904
attr interpolationmode none
attr recordingmode sum
attr source packetBytes(messageSent)
attr unit B
scalar DNP3NetworkTopology.meter[2].interface$o.channel throughput:last 4568.1661125986
attr recordingmode last
attr source sumPerDuration(packetBits(messageSent))
attr unit bps
scalar DNP3NetworkTopology.meter[2].interface$o.channel utilization:last 0.070277802468227
attr recordingmode last
attr source timeavg(channelBusy)
par DNP3NetworkTopology.Concatenator.MeterInterface$o[2].channel typename "\"ned.DatarateChannel\""
par DNP3NetworkTopology.Concatenator.MeterInterface$o[2].channel disabled false
attr mutable ""
par DNP3NetworkTopology.Concatenator.MeterInterface$o[2].channel delay 0.002s
attr mutable ""
attr unit s
par DNP3NetworkTopology.Concatenator.MeterInterface$o[2].channel datarate 65000bps
attr mutable ""
attr unit bps
par DNP3NetworkTopology.Concatenator.MeterInterface$o[2].channel ber 0
attr mutable ""
par DNP3NetworkTopology.Concatenator.MeterInterface$o[2].channel per 0
attr mutable ""
scalar DNP3NetworkTopology.Concatenator.MeterInterface$o[2].channel packetsDiscarded:count 1
attr interpolationmode none
attr recordingmode count
attr source constant1(messageDiscarded)
scalar DNP3NetworkTopology.Concatenator.MeterInterface$o[2].channel packets:count 549
attr interpolationmode none
attr recordingmode count
attr source constant1(messageSent)
scalar DNP3NetworkTopology.Concatenator.MeterInterface$o[2].channel packetBytes:sum 34524
attr interpolationmode none
attr recordingmode sum
attr source packetBytes(messageSent)
attr unit B
scalar DNP3NetworkTopology.Concatenator.MeterInterface$o[2].channel throughput:last 922.83493924055
attr recordingmode last
attr source sumPerDuration(packetBits(messageSent))
attr unit bps
scalar DNP3NetworkTopology.Concatenator.MeterInterface$o[2].channel utilization:last 0.014197121978961
attr recordingmode last
attr source timeavg(channelBusy)
par DNP3NetworkTopology.meter[3].interface$o.channel typename "\"ned.DatarateChannel\""
par DNP3NetworkTopology.meter[3].interface$o.channel disabled false
attr mutable ""
par DNP3NetworkTopology.meter[3].interface$o.channel delay 0.002s
attr mutable ""
attr unit s
par DNP3NetworkTopology.meter[3].interface$o.channel datarate 65000bps
attr mutable ""
attr unit bps
par DNP3NetworkTopology.meter[3].interface$o.channel ber 0
attr mutable ""
par DNP3NetworkTopology.meter[3].interface$o.channel per 0
attr mutable ""
scalar DNP3NetworkTopology.meter[3].interface$o.channel packetsDiscarded:count 1
attr interpolationmode none
attr recordingmode count
attr source constant1(messageDiscarded)
scalar DNP3NetworkTopology.meter[3].interface$o.channel packets:count 500
attr interpolationmode none
attr recordingmode count
attr source constant1(messageSent)
scalar DNP3NetworkTopology.meter[3].interface$o.channel packetBytes:sum 149942
attr interpolationmode none
attr recordingmode sum
attr source packetBytes(messageSent)
attr unit B
scalar DNP3NetworkTopology.meter[3].interface$o.channel throughput:last 4007.4102806385
attr recordingmode last
attr source sumPerDuration(packetBits(messageSent))
attr unit bps
scalar DNP3NetworkTopology.meter[3].interface$o.channel utilization:last 0.061650995592133
attr recordingmode last
attr source timeavg(channelBusy)
par DNP3NetworkTopology.Concatenator.MeterInterface$o[3].channel typename "\"ned.DatarateChannel\""
par DNP3NetworkTopology.Concatenator.MeterInterface$o[3].channel disabled false
attr mutable ""
par DNP3NetworkTopology.Concatenator.MeterInterface$o[3].channel delay 0.002s
attr mutable ""
attr unit s
par DNP3NetworkTopology.Concatenator.MeterInterface$o[3].channel datarate 65000bps
attr mutable ""
attr unit bps
par DNP3NetworkTopology.Concatenator.MeterInterface$o[3].channel ber 0
attr mutable ""
par DNP3NetworkTopology.Concatenator.MeterInterface$o[3].channel per 0
attr mutable ""
scalar DNP3NetworkTopology.Concatenator.MeterInterface$o[3].channel packetsDiscarded:count 1
attr interpolationmode none
attr recordingmode count
attr source constant1(messageDiscarded)
scalar DNP3NetworkTopology.Concatenator.MeterInterface$o[3].channel packets:count 499
attr interpolationmode none
attr recordingmode count
attr source constant1(messageSent)
scalar DNP3NetworkTopology.Concatenator.MeterInterface$o[3].channel packetBytes:sum 31374
attr interpolationmode none
attr recordingmode sum
attr source packetBytes(messageSent)
attr unit B
scalar DNP3NetworkTopology.Concatenator.MeterInterface$o[3].channel throughput:last 838.53976020404
attr recordingmode last
attr source sumPerDuration(packetBits(messageSent))
attr unit bps
scalar DNP3NetworkTopology.Concatenator.MeterInterface$o[3].channel utilization:last 0.012900304036773
attr recordingmode last
attr source timeavg(channelBusy)
par DNP3NetworkTopology.meter[4].interface$o.channel typename "\"ned.DatarateChannel\""
par DNP3NetworkTopology.meter[4].interface$o.channel disabled false
attr mutable ""
par DNP3NetworkTopology.meter[4].interface$o.channel delay 0.002s
attr mutable ""
attr unit s
par DNP3NetworkTopology.meter[4].interface$o.channel datarate 65000bps
attr mutable ""
attr unit bps
par DNP3NetworkTopology.meter[4].interface$o.channel ber 0
attr mutable ""
par DNP3NetworkTopology.meter[4].interface$o.channel per 0
attr mutable ""
scalar DNP3NetworkTopology.meter[4].interface$o.channel packetsDiscarded:count 1
attr interpolationmode none
attr recordingmode count
attr source constant1(messageDiscarded)
scalar DNP3NetworkTopology.meter[4].interface$o.channel packets:count 414
attr interpolationmode none
attr recordingmode count
attr source constant1(messageSent)
scalar DNP3NetworkTopology.meter[4].interface$o.channel packetBytes:sum 127046
attr interpolationmode none
attr recordingmode sum
attr source packetBytes(messageSent)
attr unit B
scalar DNP3NetworkTopology.meter[4].interface$o.channel throughput:last 3395.0983413904
attr recordingmode last
attr source sumPerDuration(packetBits(messageSent))
attr unit bps
scalar DNP3NetworkTopology.meter[4].interface$o.channel utilization:last 0.052231036701206
attr recordingmode last
attr source timeavg(channelBusy)
par DNP3NetworkTopology.Concatenator.MeterInterface$o[4].channel typename "\"ned.DatarateChannel\""
par DNP3NetworkTopology.Concatenator.MeterInterface$o[4].channel disabled false
attr mutable ""
par DNP3NetworkTopology.Concatenator.MeterInterface$o[4].channel delay 0.002s
attr mutable ""
attr unit s
par DNP3NetworkTopology.Concatenator.MeterInterface$o[4].channel datarate 65000bps
attr mutable ""
attr unit bps
par DNP3NetworkTopology.Concatenator.MeterInterface$o[4].channel ber 0
attr mutable ""
par DNP3NetworkTopology.Concatenator.MeterInterface$o[4].channel per 0
attr mutable ""
scalar DNP3NetworkTopology.Concatenator.MeterInterface$o[4].channel packetsDiscarded:count 1
attr interpolationmode none
attr recordingmode count
attr source constant1(messageDiscarded)
scalar DNP3NetworkTopology.Concatenator.MeterInterface$o[4].channel packets:count 401
attr interpolationmode none
attr recordingmode count
attr source constant1(messageSent)
scalar DNP3NetworkTopology.Concatenator.MeterInterface$o[4].channel packetBytes:sum 25200
attr interpolationmode none
attr recordingmode sum
attr source packetBytes(messageSent)
attr unit B
scalar DNP3NetworkTopology.Concatenator.MeterInterface$o[4].channel throughput:last 673.44969544312
attr recordingmode last
attr source sumPerDuration(packetBits(messageSent))
attr unit bps
scalar DNP3NetworkTopology.Concatenator.MeterInterface$o[4].channel utilization:last 0.010360517485802
attr recordingmode last
attr source timeavg(channelBusy)
par DNP3NetworkTopology.meter[5].interface$o.channel typename "\"ned.DatarateChannel\""
par DNP3NetworkTopology.meter[5].interface$o.channel disabled false
attr mutable ""
par DNP3NetworkTopology.meter[5].interface$o.channel delay 0.002s
attr mutable ""
attr unit s
par DNP3NetworkTopology.meter[5].interface$o.channel datarate 65000bps
attr mutable ""
attr unit bps
par DNP3NetworkTopology.meter[5].interface$o.channel ber 0
attr mutable ""
par DNP3NetworkTopology.meter[5].interface$o.channel per 0
attr mutable ""
scalar DNP3NetworkTopology.meter[5].interface$o.channel packetsDiscarded:count 1
attr interpolationmode none
attr recordingmode count
attr source constant1(messageDiscarded)
scalar DNP3NetworkTopology.meter[5].interface$o.channel packets:count 390
attr interpolationmode none
attr recordingmode count
attr source constant1(messageSent)
scalar DNP3NetworkTopology.meter[5].interface$o.channel packetBytes:sum 125654
attr interpolationmode none
attr recordingmode sum
attr source packetBytes(messageSent)
attr unit B
scalar DNP3NetworkTopology.meter[5].interface$o.channel throughput:last 3357.5194723783
attr recordingmode last
attr source sumPerDuration(packetBits(messageSent))
attr unit bps
scalar DNP3NetworkTopology.meter[5].interface$o.channel utilization:last 0.051652914179869
attr recordingmode last
attr source timeavg(channelBusy)
par DNP3NetworkTopology.Concatenator.MeterInterface$o[5].channel typename "\"ned.DatarateChannel\""
par DNP3NetworkTopology.Concatenator.MeterInterface$o[5].channel disabled false
attr mutable ""
par DNP3NetworkTopology.Concatenator.MeterInterface$o[5].channel delay 0.002s
attr mutable ""
attr unit s
par DNP3NetworkTopology.Concatenator.MeterInterface$o[5].channel datarate 65000bps
attr mutable ""
attr unit bps
par DNP3NetworkTopology.Concatenator.MeterInterface$o[5].channel ber 0
attr mutable ""
par DNP3NetworkTopology.Concatenator.MeterInterface$o[5].channel per 0
attr mutable ""
scalar DNP3NetworkTopology.Concatenator.MeterInterface$o[5].channel packetsDiscarded:count 1
attr interpolationmode none
attr recordingmode count
attr source constant1(messageDiscarded)
scalar DNP3NetworkTopology.Concatenator.MeterInterface$o[5].channel packets:count 353
attr interpolationmode none
attr recordingmode count
attr source constant1(messageSent)
scalar DNP3NetworkTopology.Concatenator.MeterInterface$o[5].channel packetBytes:sum 22176
attr interpolationmode none
attr recordingmode sum
attr source packetBytes(messageSent)
attr unit B
scalar DNP3NetworkTopology.Concatenator.MeterInterface$o[5].channel throughput:last 592.56867676436
attr recordingmode last
attr source sumPerDuration(packetBits(messageSent))
attr unit bps
scalar DNP3NetworkTopology.Concatenator.MeterInterface$o[5].channel utilization:last 0.0091162238178461
attr recordingmode last
attr source timeavg(channelBusy)
par DNP3NetworkTopology.meter[6].interface$o.channel typename "\"ned.DatarateChannel\""
par DNP3NetworkTopology.meter[6].interface$o.channel disabled false
attr mutable ""
par DNP3NetworkTopology.meter[6].interface$o.channel delay 0.002s
attr mutable ""
attr unit s
par DNP3NetworkTopology.meter[6].interface$o.channel datarate 65000bps
attr mutable ""
attr unit bps
par DNP3NetworkTopology.meter[6].interface$o.channel ber 0
attr mutable ""
par DNP3NetworkTopology.meter[6].interface$o.channel per 0
attr mutable ""
scalar DNP3NetworkTopology.meter[6].interface$o.channel packetsDiscarded:count 1
attr interpolationmode none
attr recordingmode count
attr source constant1(messageDiscarded)
scalar DNP3NetworkTopology.meter[6].interface$o.channel packets:count 350
attr interpolationmode none
attr recordingmode count
attr source constant1(messageSent)
scalar DNP3NetworkTopology.meter[6].interface$o.channel packetBytes:sum 116558
attr interpolationmode none
attr recordingmode sum
attr source packetBytes(messageSent)
attr unit B
scalar DNP3NetworkTopology.meter[6].interface$o.channel throughput:last 3118.2374673558
attr recordingmode last
attr source sumPerDuration(packetBits(messageSent))
attr unit bps
scalar DNP3NetworkTopology.meter[6].interface$o.channel utilization:last 0.04797173895043
attr recordingmode last
attr source timeavg(channelBusy)
par DNP3NetworkTopology.Concatenator.MeterInterface$o[6].channel typename "\"ned.DatarateChannel\""
par DNP3NetworkTopology.Concatenator.MeterInterface$o[6].channel disabled false
attr mutable ""
par DNP3NetworkTopology.Concatenator.MeterInterface$o[6].channel delay 0.002s
attr mutable ""
attr unit s
par DNP3NetworkTopology.Concatenator.MeterInterface$o[6].channel datarate 65000bps
attr mutable ""
attr unit bps
par DNP3NetworkTopology.Concatenator.MeterInterface$o[6].channel ber 0
attr mutable ""
par DNP3NetworkTopology.Concatenator.MeterInterface$o[6].channel per 0
attr mutable ""
scalar DNP3NetworkTopology.Concatenator.MeterInterface$o[6].channel packetsDiscarded:count 1
attr interpolationmode none
attr recordingmode count
attr source constant1(messageDiscarded)
scalar DNP3NetworkTopology.Concatenator.MeterInterface$o[6].channel packets:count 301
attr interpolationmode none
attr recordingmode count
attr source constant1(messageSent)
scalar DNP3NetworkTopology.Concatenator.MeterInterface$o[6].channel packetBytes:sum 18900
attr interpolationmode none
attr recordingmode sum
attr source packetBytes(messageSent)
attr unit B
scalar DNP3NetworkTopology.Concatenator.MeterInterface$o[6].channel throughput:last 505.64087595079
attr recordingmode last
attr source sumPerDuration(packetBits(messageSent))
attr unit bps
scalar DNP3NetworkTopology.Concatenator.MeterInterface$o[6].channel utilization:last 0.0077789046982308
attr recordingmode last
attr source timeavg(channelBusy)
par DNP3NetworkTopology.meter[7].interface$o.channel typename "\"ned.DatarateChannel\""
par DNP3NetworkTopology.meter[7].interface$o.channel disabled false
attr mutable ""
par DNP3NetworkTopology.meter[7].interface$o.channel delay 0.002s
attr mutable ""
attr unit s
par DNP3NetworkTopology.meter[7].interface$o.channel datarate 65000bps
attr mutable ""
attr unit bps
par DNP3NetworkTopology.meter[7].interface$o.channel ber 0
attr mutable ""
par DNP3NetworkTopology.meter[7].interface$o.channel per 0
attr mutable ""
scalar DNP3NetworkTopology.meter[7].interface$o.channel packetsDiscarded:count 1
attr interpolationmode none
attr recordingmode count
attr source constant1(messageDiscarded)
scalar DNP3NetworkTopology.meter[7].interface$o.channel packets:count 327
attr interpolationmode none
attr recordingmode count
attr source constant1(messageSent)
scalar DNP3NetworkTopology.meter[7].interface$o.channel packetBytes:sum 109900
attr interpolationmode none
attr recordingmode sum
attr source packetBytes(messageSent)
attr unit B
scalar DNP3NetworkTopology.meter[7].interface$o.channel throughput:last 2936.2347842065
attr recordingmode last
attr source sumPerDuration(packetBits(messageSent))
attr unit bps
scalar DNP3NetworkTopology.meter[7].interface$o.channel utilization:last 0.045171765935375
attr recordingmode last
attr source timeavg(channelBusy)
par DNP3NetworkTopology.Concatenator.MeterInterface$o[7].channel typename "\"ned.DatarateChannel\""
par DNP3NetworkTopology.Concatenator.MeterInterface$o[7].channel disabled false
attr mutable ""
par DNP3NetworkTopology.Concatenator.MeterInterface$o[7].channel delay 0.002s
attr mutable ""
attr unit s
par DNP3NetworkTopology.Concatenator.MeterInterface$o[7].channel datarate 65000bps
attr mutable ""
attr unit bps
par DNP3NetworkTopology.Concatenator.MeterInterface$o[7].channel ber 0
attr mutable ""
par DNP3NetworkTopology.Concatenator.MeterInterface$o[7].channel per 0
attr mutable ""
scalar DNP3NetworkTopology.Concatenator.MeterInterface$o[7].channel packetsDiscarded:count 1
attr interpolationmode none
attr recordingmode count
attr source constant1(messageDiscarded)
scalar DNP3NetworkTopology.Concatenator.MeterInterface$o[7].channel packets:count 277
attr interpolationmode none
attr recordingmode count
attr source constant1(messageSent)
scalar DNP3NetworkTopology.Concatenator.MeterInterface$o[7].channel packetBytes:sum 17388
attr interpolationmode none
attr recordingmode sum
attr source packetBytes(messageSent)
attr unit B
scalar DNP3NetworkTopology.Concatenator.MeterInterface$o[7].channel throughput:last 464.57514696683
attr recordingmode last
attr source sumPerDuration(packetBits(messageSent))
attr unit bps
scalar DNP3NetworkTopology.Concatenator.MeterInterface$o[7].channel utilization:last 0.0071471395594316
attr recordingmode last
attr source timeavg(channelBusy)
par DNP3NetworkTopology.meter[8].interface$o.channel typename "\"ned.DatarateChannel\""
par DNP3NetworkTopology.meter[8].interface$o.channel disabled false
attr mutable ""
par DNP3NetworkTopology.meter[8].interface$o.channel delay 0.002s
attr mutable ""
attr unit s
par DNP3NetworkTopology.meter[8].interface$o.channel datarate 65000bps
attr mutable ""
attr unit bps
par DNP3NetworkTopology.meter[8].interface$o.channel ber 0
attr mutable ""
par DNP3NetworkTopology.meter[8].interface$o.channel per 0
attr mutable ""
scalar DNP3NetworkTopology.meter[8].interface$o.channel packetsDiscarded:count 1
attr interpolationmode none
attr recordingmode count
attr source constant1(messageDiscarded)
scalar DNP3NetworkTopology.meter[8].interface$o.channel packets:count 351
attr interpolationmode none
attr recordingmode count
attr source constant1(messageSent)
scalar DNP3NetworkTopology.meter[8].interface$o.channel packetBytes:sum 122908
attr interpolationmode none
attr recordingmode sum
attr source packetBytes(messageSent)
attr unit B
scalar DNP3NetworkTopology.meter[8].interface$o.channel throughput:last 3283.4023832953
attr recordingmode last
attr source sumPerDuration(packetBits(messageSent))
attr unit bps
scalar DNP3NetworkTopology.meter[8].interface$o.channel utilization:last 0.050512678729809
attr recordingmode last
attr source timeavg(channelBusy)
par DNP3NetworkTopology.Concatenator.MeterInterface$o[8].channel typename "\"ned.DatarateChannel\""
par DNP3NetworkTopology.Concatenator.MeterInterface$o[8].channel disabled false
attr mutable ""
par DNP3NetworkTopology.Concatenator.MeterInterface$o[8].channel delay 0.002s
attr mutable ""
attr unit s
par DNP3NetworkTopology.Concatenator.MeterInterface$o[8].channel datarate 65000bps
attr mutable ""
attr unit bps
par DNP3NetworkTopology.Concatenator.MeterInterface$o[8].channel ber 0
attr mutable ""
par DNP3NetworkTopology.Concatenator.MeterInterface$o[8].channel per 0
attr mutable ""
scalar DNP3NetworkTopology.Concatenator.MeterInterface$o[8].channel packetsDiscarded:count 1
attr interpolationmode none
attr recordingmode count
attr source constant1(messageDiscarded)
scalar DNP3NetworkTopology.Concatenator.MeterInterface$o[8].channel packets:count 277
attr interpolationmode none
attr recordingmode count
attr source constant1(messageSent)
scalar DNP3NetworkTopology.Concatenator.MeterInterface$o[8].channel packetBytes:sum 17388
attr interpolationmode none
attr recordingmode sum
attr source packetBytes(messageSent)
attr unit B
scalar DNP3NetworkTopology.Concatenator.MeterInterface$o[8].channel throughput:last 464.52259336331
attr recordingmode last
attr source sumPerDuration(packetBits(messageSent))
attr unit bps
scalar DNP3NetworkTopology.Concatenator.MeterInterface$o[8].channel utilization:last 0.0071463310810022
attr recordingmode last
attr source timeavg(channelBusy)
par DNP3NetworkTopology.meter[9].interface$o.channel typename "\"ned.DatarateChannel\""
par DNP3NetworkTopology.meter[9].interface$o.channel disabled false
attr mutable ""
par DNP3NetworkTopology.meter[9].interface$o.channel delay 0.002s
attr mutable ""
attr unit s
par DNP3NetworkTopology.meter[9].interface$o.channel datarate 65000bps
attr mutable ""
attr unit bps
par DNP3NetworkTopology.meter[9].interface$o.channel ber 0
attr mutable ""
par DNP3NetworkTopology.meter[9].interface$o.channel per 0
attr mutable ""
scalar DNP3NetworkTopology.meter[9].interface$o.channel packetsDiscarded:count 1
attr interpolationmode none
attr recordingmode count
attr source constant1(messageDiscarded)
scalar DNP3NetworkTopology.meter[9].interface$o.channel packets:count 351
attr interpolationmode none
attr recordingmode count
attr source constant1(messageSent)
scalar DNP3NetworkTopology.meter[9].interface$o.channel packetBytes:sum 122908
attr interpolationmode none
attr recordingmode sum
attr source packetBytes(messageSent)
attr unit B
scalar DNP3NetworkTopology.meter[9].interface$o.channel throughput:last 3283.0310120625
attr recordingmode last
attr source sumPerDuration(packetBits(messageSent))
attr unit bps
scalar DNP3NetworkTopology.meter[9].interface$o.channel utilization:last 0.050506965598587
attr recordingmode last
attr source timeavg(channelBusy)
par DNP3NetworkTopology.Concatenator.MeterInterface$o[9].channel typename "\"ned.DatarateChannel\""
par DNP3NetworkTopology.Concatenator.MeterInterface$o[9].channel disabled false
attr mutable ""
par DNP3NetworkTopology.Concatenator.MeterInterface$o[9].channel delay 0.002s
attr mutable ""
attr unit s
par DNP3NetworkTopology.Concatenator.MeterInterface$o[9].channel datarate 65000bps
attr mutable ""
attr unit bps
par DNP3NetworkTopology.Concatenator.MeterInterface$o[9].channel ber 0
attr mutable ""
par DNP3NetworkTopology.Concatenator.MeterInterface$o[9].channel per 0
attr mutable ""
scalar DNP3NetworkTopology.Concatenator.MeterInterface$o[9].channel packetsDiscarded:count 1
attr interpolationmode none
attr recordingmode count
attr source constant1(messageDiscarded)
scalar DNP3NetworkTopology.Concatenator.MeterInterface$o[9].channel packets:count 277
attr interpolationmode none
attr recordingmode count
attr source constant1(messageSent)
scalar DNP3NetworkTopology.Concatenator.MeterInterface$o[9].channel packetBytes:sum 17388
attr interpolationmode none
attr recordingmode sum
attr source packetBytes(messageSent)
attr unit B
scalar DNP3NetworkTopology.Concatenator.MeterInterface$o[9].channel throughput:last 464.47005164836
attr recordingmode last
attr source sumPerDuration(packetBits(messageSent))
attr unit bps
scalar DNP3NetworkTopology.Concatenator.MeterInterface$o[9].channel utilization:last 0.0071455227854609
attr recordingmode last
attr source timeavg(channelBusy)
par DNP3NetworkTopology.meter[10].interface$o.channel typename "\"ned.DatarateChannel\""
par DNP3NetworkTopology.meter[10].interface$o.channel disabled false
attr mutable ""
par DNP3NetworkTopology.meter[10].interface$o.channel delay 0.002s
attr mutable ""
attr unit s
par DNP3NetworkTopology.meter[10].interface$o.channel datarate 65000bps
attr mutable ""
attr unit bps
par DNP3NetworkTopology.meter[10].interface$o.channel ber 0
attr mutable ""
par DNP3NetworkTopology.meter[10].interface$o.channel per 0
attr mutable ""
scalar DNP3NetworkTopology.meter[10].interface$o.channel packetsDiscarded:count 1
attr interpolationmode none
attr recordingmode count
attr source constant1(messageDiscarded)
scalar DNP3NetworkTopology.meter[10].interface$o.channel packets:count 351
attr interpolationmode none
attr recordingmode count
attr source constant1(messageSent)
scalar DNP3NetworkTopology.meter[10].interface$o.channel packetBytes:sum 122908
attr interpolationmode none
attr recordingmode sum
attr source packetBytes(messageSent)
attr unit B
scalar DNP3NetworkTopology.meter[10].interface$o.channel throughput:last 3282.6597248284
attr recordingmode last
attr source sumPerDuration(packetBits(messageSent))
attr unit bps
scalar DNP3NetworkTopology.meter[10].interface$o.channel utilization:last 0.050501253759562
attr recordingmode last
attr source timeavg(channelBusy)
par DNP3NetworkTopology.Concatenator.MeterInterface$o[10].channel typename "\"ned.DatarateChannel\""
par DNP3NetworkTopology.Concatenator.MeterInterface$o[10].channel disabled false
attr mutable ""
par DNP3NetworkTopology.Concatenator.MeterInterface$o[10].channel delay 0.002s
attr mutable ""
attr unit s
par DNP3NetworkTopology.Concatenator.MeterInterface$o[10].channel datarate 65000bps
attr mutable ""
attr unit bps
par DNP3NetworkTopology.Concatenator.MeterInterface$o[10].channel ber 0
attr mutable ""
par DNP3NetworkTopology.Concatenator.MeterInterface$o[10].channel per 0
attr mutable ""
scalar DNP3NetworkTopology.Concatenator.MeterInterface$o[10].channel packetsDiscarded:count 1
attr interpolationmode none
attr recordingmode count
attr source constant1(messageDiscarded)
scalar DNP3NetworkTopology.Concatenator.MeterInterface$o[10].channel packets:count 277
attr interpolationmode none
attr recordingmode count
attr source constant1(messageSent)
scalar DNP3NetworkTopology.Concatenator.MeterInterface$o[10].channel packetBytes:sum 17388
attr interpolationmode none
attr recordingmode sum
attr source packetBytes(messageSent)
attr unit B
scalar DNP3NetworkTopology.Concatenator.MeterInterface$o[10].channel throughput:last 464.41752181797
attr recordingmode last
attr source sumPerDuration(packetBits(messageSent))
attr unit bps
scalar DNP3NetworkTopology.Concatenator.MeterInterface$o[10].channel utilization:last 0.0071447146727457
attr recordingmode last
attr source timeavg(channelBusy)
par DNP3NetworkTopology.meter[11].interface$o.channel typename "\"ned.DatarateChannel\""
par DNP3NetworkTopology.meter[11].interface$o.channel disabled false
attr mutable ""
par DNP3NetworkTopology.meter[11].interface$o.channel delay 0.002s
attr mutable ""
attr unit s
par DNP3NetworkTopology.meter[11].interface$o.channel datarate 65000bps
attr mutable ""
attr unit bps
par DNP3NetworkTopology.meter[11].interface$o.channel ber 0
attr mutable ""
par DNP3NetworkTopology.meter[11].interface$o.channel per 0
attr mutable ""
scalar DNP3NetworkTopology.meter[11].interface$o.channel packetsDiscarded:count 1
attr interpolationmode none
attr recordingmode count
attr source constant1(messageDiscarded)
scalar DNP3NetworkTopology.meter[11].interface$o.channel packets:count 351
attr interpolationmode none
attr recordingmode count
attr source constant1(messageSent)
scalar DNP3NetworkTopology.meter[11].interface$o.channel packetBytes:sum 122908
attr interpolationmode none
attr recordingmode sum
attr source packetBytes(messageSent)
attr unit B
scalar DNP3NetworkTopology.meter[11].interface$o.channel throughput:last 3282.2885215648
attr recordingmode last
attr source sumPerDuration(packetBits(messageSent))
attr unit bps
scalar DNP3NetworkTopology.meter[11].interface$o.channel utilization:last 0.050495543212296
attr recordingmode last
attr source timeavg(channelBusy)
par DNP3NetworkTopology.Concatenator.MeterInterface$o[11].channel typename "\"ned.DatarateChannel\""
par DNP3NetworkTopology.Concatenator.MeterInterface$o[11].channel disabled false
attr mutable ""
par DNP3NetworkTopology.Concatenator.MeterInterface$o[11].channel delay 0.002s
attr mutable ""
attr unit s
par DNP3NetworkTopology.Concatenator.MeterInterface$o[11].channel datarate 65000bps
attr mutable ""
attr unit bps
par DNP3NetworkTopology.Concatenator.MeterInterface$o[11].channel ber 0
attr mutable ""
par DNP3NetworkTopology.Concatenator.MeterInterface$o[11].channel per 0
attr mutable ""
scalar DNP3NetworkTopology.Concatenator.MeterInterface$o[11].channel packetsDiscarded:count 1
attr interpolationmode none
attr recordingmode count
attr source constant1(messageDiscarded)
scalar DNP3NetworkTopology.Concatenator.MeterInterface$o[11].channel packets:count 277
attr interpolationmode none
attr recordingmode count
attr source constant1(messageSent)
scalar DNP3NetworkTopology.Concatenator.MeterInterface$o[11].channel packetBytes:sum 17388
attr interpolationmode none
attr recordingmode sum
attr source packetBytes(messageSent)
attr unit B
scalar DNP3NetworkTopology.Concatenator.MeterInterface$o[11].channel throughput:last 464.36500386808
attr recordingmode last
attr source sumPerDuration(packetBits(messageSent))
attr unit bps
scalar DNP3NetworkTopology.Concatenator.MeterInterface$o[11].channel utilization:last 0.0071439067427946
attr recordingmode last
attr source timeavg(channelBusy)
par DNP3NetworkTopology.meter[12].interface$o.channel typename "\"ned.DatarateChannel\""
par DNP3NetworkTopology.meter[12].interface$o.channel disabled false
attr mutable ""
par DNP3NetworkTopology.meter[12].interface$o.channel delay 0.002s
attr mutable ""
attr unit s
par DNP3NetworkTopology.meter[12].interface$o.channel datarate 65000bps
attr mutable ""
attr unit bps
par DNP3NetworkTopology.meter[12].interface$o.channel ber 0
attr mutable ""
par DNP3NetworkTopology.meter[12].interface$o.channel per 0
attr mutable ""
scalar DNP3NetworkTopology.meter[12].interface$o.channel packetsDiscarded:count 1
attr interpolationmode none
attr recordingmode count
attr source constant1(messageDiscarded)
scalar DNP3NetworkTopology.meter[12].interface$o.channel packets:count 351
attr interpolationmode none
attr recordingmode count
attr source constant1(messageSent)
scalar DNP3NetworkTopology.meter[12].interface$o.channel packetBytes:sum 122908
attr interpolationmode none
attr recordingmode sum
attr source packetBytes(messageSent)
attr unit B
scalar DNP3NetworkTopology.meter[12].interface$o.channel throughput:last 3281.917402243
attr recordingmode last
attr source sumPerDuration(packetBits(messageSent))
attr unit bps
scalar DNP3NetworkTopology.meter[12].interface$o.channel utilization:last 0.050489833956351
attr recordingmode last
attr source timeavg(channelBusy)
par DNP3NetworkTopology.Concatenator.MeterInterface$o[12].channel typename "\"ned.DatarateChannel\""
par DNP3NetworkTopology.Concatenator.MeterInterface$o[12].channel disabled false
attr mutable ""
par DNP3NetworkTopology.Concatenator.MeterInterface$o[12].channel delay 0.002s
attr mutable ""
attr unit s
par DNP3NetworkTopology.Concatenator.MeterInterface$o[12].channel datarate 65000bps
attr mutable ""
attr unit bps
par DNP3NetworkTopology.Concatenator.MeterInterface$o[12].channel ber 0
attr mutable ""
par DNP3NetworkTopology.Concatenator.MeterInterface$o[12].channel per 0
attr mutable ""
scalar DNP3NetworkTopology.Concatenator.MeterInterface$o[12].channel packetsDiscarded:count 1
attr interpolationmode none
attr recordingmode count
attr source constant1(messageDiscarded)
scalar DNP3NetworkTopology.Concatenator.MeterInterface$o[12].channel packets:count 277
attr interpolationmode none
attr recordingmode count
attr source constant1(messageSent)
scalar DNP3NetworkTopology.Concatenator.MeterInterface$o[12].channel packetBytes:sum 17388
attr interpolationmode none
attr recordingmode sum
attr source packetBytes(messageSent)
attr unit B
scalar DNP3NetworkTopology.Concatenator.MeterInterface$o[12].channel throughput:last 464.31249779467
attr recordingmode last
attr source sumPerDuration(packetBits(messageSent))
attr unit bps
scalar DNP3NetworkTopology.Concatenator.MeterInterface$o[12].channel utilization:last 0.0071430989955455
attr recordingmode last
attr source timeavg(channelBusy)
par DNP3NetworkTopology.meter[13].interface$o.channel typename "\"ned.DatarateChannel\""
par DNP3NetworkTopology.meter[13].interface$o.channel disabled false
attr mutable ""
par DNP3NetworkTopology.meter[13].interface$o.channel delay 0.002s
attr mutable ""
attr unit s
par DNP3NetworkTopology.meter[13].interface$o.channel datarate 65000bps
attr mutable ""
attr unit bps
par DNP3NetworkTopology.meter[13].interface$o.channel ber 0
attr mutable ""
par DNP3NetworkTopology.meter[13].interface$o.channel per 0
attr mutable ""
scalar DNP3NetworkTopology.meter[13].interface$o.channel packetsDiscarded:count 1
attr interpolationmode none
attr recordingmode count
attr source constant1(messageDiscarded)
scalar DNP3NetworkTopology.meter[13].interface$o.channel packets:count 351
attr interpolationmode none
attr recordingmode count
attr source constant1(messageSent)
scalar DNP3NetworkTopology.meter[13].interface$o.channel packetBytes:sum 122908
attr interpolationmode none
attr recordingmode sum
attr source packetBytes(messageSent)
attr unit B
scalar DNP3NetworkTopology.meter[13].interface$o.channel throughput:last 3281.5463668346
attr recordingmode last
attr source sumPerDuration(packetBits(messageSent))
attr unit bps
scalar DNP3NetworkTopology.meter[13].interface$o.channel utilization:last 0.050484125991289
attr recordingmode last
attr source timeavg(channelBusy)
par DNP3NetworkTopology.Concatenator.MeterInterface$o[13].channel typename "\"ned.DatarateChannel\""
par DNP3NetworkTopology.Concatenator.MeterInterface$o[13].channel disabled false
attr mutable ""
par DNP3NetworkTopology.Concatenator.MeterInterface$o[13].channel delay 0.002s
attr mutable ""
attr unit s
par DNP3NetworkTopology.Concatenator.MeterInterface$o[13].channel datarate 65000bps
attr mutable ""
attr unit bps
par DNP3NetworkTopology.Concatenator.MeterInterface$o[13].channel ber 0
attr mutable ""
par DNP3NetworkTopology.Concatenator.MeterInterface$o[13].channel per 0
attr mutable ""
scalar DNP3NetworkTopology.Concatenator.MeterInterface$o[13].channel packetsDiscarded:count 1
attr interpolationmode none
attr recordingmode count
attr source constant1(messageDiscarded)
scalar DNP3NetworkTopology.Concatenator.MeterInterface$o[13].channel packets:count 277
attr interpolationmode none
attr recordingmode count
attr source constant1(messageSent)
scalar DNP3NetworkTopology.Concatenator.MeterInterface$o[13].channel packetBytes:sum 17388
attr interpolationmode none
attr recordingmode sum
attr source packetBytes(messageSent)
attr unit B
scalar DNP3NetworkTopology.Concatenator.MeterInterface$o[13].channel throughput:last 464.26000359372
attr recordingmode last
attr source sumPerDuration(packetBits(messageSent))
attr unit bps
scalar DNP3NetworkTopology.Concatenator.MeterInterface$o[13].channel utilization:last 0.0071422914309364
attr recordingmode last
attr source timeavg(channelBusy)
par DNP3NetworkTopology.meter[14].interface$o.channel typename "\"ned.DatarateChannel\""
par DNP3NetworkTopology.meter[14].interface$o.channel disabled false
attr mutable ""
par DNP3NetworkTopology.meter[14].interface$o.channel delay 0.002s
attr mutable ""
attr unit s
par DNP3NetworkTopology.meter[14].interface$o.channel datarate 65000bps
attr mutable ""
attr unit bps
par DNP3NetworkTopology.meter[14].interface$o.channel ber 0
attr mutable ""
par DNP3NetworkTopology.meter[14].interface$o.channel per 0
attr mutable ""
scalar DNP3NetworkTopology.meter[14].interface$o.channel packetsDiscarded:count 1
attr interpolationmode none
attr recordingmode count
attr source constant1(messageDiscarded)
scalar DNP3NetworkTopology.meter[14].interface$o.channel packets:count 351
attr interpolationmode none
attr recordingmode count
attr source constant1(messageSent)
scalar DNP3NetworkTopology.meter[14].interface$o.channel packetBytes:sum 122908
attr interpolationmode none
attr recordingmode sum
attr source packetBytes(messageSent)
attr unit B
scalar DNP3NetworkTopology.meter[14].interface$o.channel throughput:last 3281.1754153111
attr recordingmode last
attr source sumPerDuration(packetBits(messageSent))
attr unit bps
scalar DNP3NetworkTopology.meter[14].interface$o.channel utilization:last 0.050478419316673
attr recordingmode last
attr source timeavg(channelBusy)
par DNP3NetworkTopology.Concatenator.MeterInterface$o[14].channel typename "\"ned.DatarateChannel\""
par DNP3NetworkTopology.Concatenator.MeterInterface$o[14].channel disabled false
attr mutable ""
par DNP3NetworkTopology.Concatenator.MeterInterface$o[14].channel delay 0.002s
attr mutable ""
attr unit s
par DNP3NetworkTopology.Concatenator.MeterInterface$o[14].channel datarate 65000bps
attr mutable ""
attr unit bps
par DNP3NetworkTopology.Concatenator.MeterInterface$o[14].channel ber 0
attr mutable ""
par DNP3NetworkTopology.Concatenator.MeterInterface$o[14].channel per 0
attr mutable ""
scalar DNP3NetworkTopology.Concatenator.MeterInterface$o[14].channel packetsDiscarded:count 1
attr interpolationmode none
attr recordingmode count
attr source constant1(messageDiscarded)
scalar DNP3NetworkTopology.Concatenator.MeterInterface$o[14].channel packets:count 277
attr interpolationmode none
attr recordingmode count
attr source constant1(messageSent)
scalar DNP3NetworkTopology.Concatenator.MeterInterface$o[14].channel packetBytes:sum 17388
attr interpolationmode none
attr recordingmode sum
attr source packetBytes(messageSent)
attr unit B
scalar DNP3NetworkTopology.Concatenator.MeterInterface$o[14].channel throughput:last 464.2075212612
attr recordingmode last
attr source sumPerDuration(packetBits(messageSent))
attr unit bps
scalar DNP3NetworkTopology.Concatenator.MeterInterface$o[14].channel utilization:last 0.0071414840489055
attr recordingmode last
attr source timeavg(channelBusy)
par DNP3NetworkTopology.meter[15].interface$o.channel typename "\"ned.DatarateChannel\""
par DNP3NetworkTopology.meter[15].interface$o.channel disabled false
attr mutable ""
par DNP3NetworkTopology.meter[15].interface$o.channel delay 0.002s
attr mutable ""
attr unit s
par DNP3NetworkTopology.meter[15].interface$o.channel datarate 65000bps
attr mutable ""
attr unit bps
par DNP3NetworkTopology.meter[15].interface$o.channel ber 0
attr mutable ""
par DNP3NetworkTopology.meter[15].interface$o.channel per 0
attr mutable ""
scalar DNP3NetworkTopology.meter[15].interface$o.channel packetsDiscarded:count 1
attr interpolationmode none
attr recordingmode count
attr source constant1(messageDiscarded)
scalar DNP3NetworkTopology.meter[15].interface$o.channel packets:count 351
attr interpolationmode none
attr recordingmode count
attr source constant1(messageSent)
scalar DNP3NetworkTopology.meter[15].interface$o.channel packetBytes:sum 122908
attr interpolationmode none
attr recordingmode sum
attr source packetBytes(messageSent)
attr unit B
scalar DNP3NetworkTopology.meter[15].interface$o.channel throughput:last 3280.8045476441
attr recordingmode last
attr source sumPerDuration(packetBits(messageSent))
attr unit bps
scalar DNP3NetworkTopology.meter[15].interface$o.channel utilization:last 0.050472713932064
attr recordingmode last
attr source timeavg(channelBusy)
par DNP3NetworkTopology.Concatenator.MeterInterface$o[15].channel typename "\"ned.DatarateChannel\""
par DNP3NetworkTopology.Concatenator.MeterInterface$o[15].channel disabled false
attr mutable ""
par DNP3NetworkTopology.Concatenator.MeterInterface$o[15].channel delay 0.002s
attr mutable ""
attr unit s
par DNP3NetworkTopology.Concatenator.MeterInterface$o[15].channel datarate 65000bps
attr mutable ""
attr unit bps
par DNP3NetworkTopology.Concatenator.MeterInterface$o[15].channel ber 0
attr mutable ""
par DNP3NetworkTopology.Concatenator.MeterInterface$o[15].channel per 0
attr mutable ""
scalar DNP3NetworkTopology.Concatenator.MeterInterface$o[15].channel packetsDiscarded:count 1
attr interpolationmode none
attr recordingmode count
attr source constant1(messageDiscarded)
scalar DNP3NetworkTopology.Concatenator.MeterInterface$o[15].channel packets:count 277
attr interpolationmode none
attr recordingmode count
attr source constant1(messageSent)
scalar DNP3NetworkTopology.Concatenator.MeterInterface$o[15].channel packetBytes:sum 17388
attr interpolationmode none
attr recordingmode sum
attr source packetBytes(messageSent)
attr unit B
scalar DNP3NetworkTopology.Concatenator.MeterInterface$o[15].channel throughput:last 464.15505079307
attr recordingmode last
attr source sumPerDuration(packetBits(messageSent))
attr unit bps
scalar DNP3NetworkTopology.Concatenator.MeterInterface$o[15].channel utilization:last 0.0071406768493909
attr recordingmode last
attr source timeavg(channelBusy)
par DNP3NetworkTopology.meter[16].interface$o.channel typename "\"ned.DatarateChannel\""
par DNP3NetworkTopology.meter[16].interface$o.channel disabled false
attr mutable ""
par DNP3NetworkTopology.meter[16].interface$o.channel delay 0.002s
attr mutable ""
attr unit s
par DNP3NetworkTopology.meter[16].interface$o.channel datarate 65000bps
attr mutable ""
attr unit bps
par DNP3NetworkTopology.meter[16].interface$o.channel ber 0
attr mutable ""
par DNP3NetworkTopology.meter[16].interface$o.channel per 0
attr mutable ""
scalar DNP3NetworkTopology.meter[16].interface$o.channel packetsDiscarded:count 1
attr interpolationmode none
attr recordingmode count
attr source constant1(messageDiscarded)
scalar DNP3NetworkTopology.meter[16].interface$o.channel packets:count 327
attr interpolationmode none
attr recordingmode count
attr source constant1(messageSent)
scalar DNP3NetworkTopology.meter[16].interface$o.channel packetBytes:sum 115708
attr interpolationmode none
attr recordingmode sum
attr source packetBytes(messageSent)
attr unit B
scalar DNP3NetworkTopology.meter[16].interface$o.channel throughput:last 3088.2646364953
attr recordingmode last
attr source sumPerDuration(packetBits(messageSent))
attr unit bps
scalar DNP3NetworkTopology.meter[16].interface$o.channel utilization:last 0.047510632133167
attr recordingmode last
attr source timeavg(channelBusy)
par DNP3NetworkTopology.Concatenator.MeterInterface$o[16].channel typename "\"ned.DatarateChannel\""
par DNP3NetworkTopology.Concatenator.MeterInterface$o[16].channel disabled false
attr mutable ""
par DNP3NetworkTopology.Concatenator.MeterInterface$o[16].channel delay 0.002s
attr mutable ""
attr unit s
par DNP3NetworkTopology.Concatenator.MeterInterface$o[16].channel datarate 65000bps
attr mutable ""
attr unit bps
par DNP3NetworkTopology.Concatenator.MeterInterface$o[16].channel ber 0
attr mutable ""
par DNP3NetworkTopology.Concatenator.MeterInterface$o[16].channel per 0
attr mutable ""
scalar DNP3NetworkTopology.Concatenator.MeterInterface$o[16].channel packetsDiscarded:count 1
attr interpolationmode none
attr recordingmode count
attr source constant1(messageDiscarded)
scalar DNP3NetworkTopology.Concatenator.MeterInterface$o[16].channel packets:count 253
attr interpolationmode none
attr recordingmode count
attr source constant1(messageSent)
scalar DNP3NetworkTopology.Concatenator.MeterInterface$o[16].channel packetBytes:sum 15876
attr interpolationmode none
attr recordingmode sum
attr source packetBytes(messageSent)
attr unit B
scalar DNP3NetworkTopology.Concatenator.MeterInterface$o[16].channel throughput:last 423.74584503878
attr recordingmode last
attr source sumPerDuration(packetBits(messageSent))
attr unit bps
scalar DNP3NetworkTopology.Concatenator.MeterInterface$o[16].channel utilization:last 0.006519011586041
attr recordingmode last
attr source timeavg(channelBusy)
par DNP3NetworkTopology.meter[17].interface$o.channel typename "\"ned.DatarateChannel\""
par DNP3NetworkTopology.meter[17].interface$o.channel disabled false
attr mutable ""
par DNP3NetworkTopology.meter[17].interface$o.channel delay 0.002s
attr mutable ""
attr unit s
par DNP3NetworkTopology.meter[17].interface$o.channel datarate 65000bps
attr mutable ""
attr unit bps
par DNP3NetworkTopology.meter[17].interface$o.channel ber 0
attr mutable ""
par DNP3NetworkTopology.meter[17].interface$o.channel per 0
attr mutable ""
scalar DNP3NetworkTopology.meter[17].interface$o.channel packetsDiscarded:count 1
attr interpolationmode none
attr recordingmode count
attr source constant1(messageDiscarded)
scalar DNP3NetworkTopology.meter[17].interface$o.channel packets:count 327
attr interpolationmode none
attr recordingmode count
attr source constant1(messageSent)
scalar DNP3NetworkTopology.meter[17].interface$o.channel packetBytes:sum 115708
attr interpolationmode none
attr recordingmode sum
attr source packetBytes(messageSent)
attr unit B
scalar DNP3NetworkTopology.meter[17].interface$o.channel throughput:last 3087.9156522132
attr recordingmode last
attr source sumPerDuration(packetBits(messageSent))
attr unit bps
scalar DNP3NetworkTopology.meter[17].interface$o.channel utilization:last 0.047505263399922
attr recordingmode last
attr source timeavg(channelBusy)
par DNP3NetworkTopology.Concatenator.MeterInterface$o[17].channel typename "\"ned.DatarateChannel\""
par DNP3NetworkTopology.Concatenator.MeterInterface$o[17].channel disabled false
attr mutable ""
par DNP3NetworkTopology.Concatenator.MeterInterface$o[17].channel delay 0.002s
attr mutable ""
attr unit s
par DNP3NetworkTopology.Concatenator.MeterInterface$o[17].channel datarate 65000bps
attr mutable ""
attr unit bps
par DNP3NetworkTopology.Concatenator.MeterInterface$o[17].channel ber 0
attr mutable ""
par DNP3NetworkTopology.Concatenator.MeterInterface$o[17].channel per 0
attr mutable ""
scalar DNP3NetworkTopology.Concatenator.MeterInterface$o[17].channel packetsDiscarded:count 1
attr interpolationmode none
attr recordingmode count
attr source constant1(messageDiscarded)
scalar DNP3NetworkTopology.Concatenator.MeterInterface$o[17].channel packets:count 253
attr interpolationmode none
attr recordingmode count
attr source constant1(messageSent)
scalar DNP3NetworkTopology.Concatenator.MeterInterface$o[17].channel packetBytes:sum 15876
attr interpolationmode none
attr recordingmode sum
attr source packetBytes(messageSent)
attr unit B
scalar DNP3NetworkTopology.Concatenator.MeterInterface$o[17].channel throughput:last 423.69795887448
attr recordingmode last
attr source sumPerDuration(packetBits(messageSent))
attr unit bps
scalar DNP3NetworkTopology.Concatenator.MeterInterface$o[17].channel utilization:last 0.0065182749109095
attr recordingmode last
attr source timeavg(channelBusy)
par DNP3NetworkTopology.meter[18].interface$o.channel typename "\"ned.DatarateChannel\""
par DNP3NetworkTopology.meter[18].interface$o.channel disabled false
attr mutable ""
par DNP3NetworkTopology.meter[18].interface$o.channel delay 0.002s
attr mutable ""
attr unit s
par DNP3NetworkTopology.meter[18].interface$o.channel datarate 65000bps
attr mutable ""
attr unit bps
par DNP3NetworkTopology.meter[18].interface$o.channel ber 0
attr mutable ""
par DNP3NetworkTopology.meter[18].interface$o.channel per 0
attr mutable ""
scalar DNP3NetworkTopology.meter[18].interface$o.channel packetsDiscarded:count 1
attr interpolationmode none
attr recordingmode count
attr source constant1(messageDiscarded)
scalar DNP3NetworkTopology.meter[18].interface$o.channel packets:count 357
attr interpolationmode none
attr recordingmode count
attr source constant1(messageSent)
scalar DNP3NetworkTopology.meter[18].interface$o.channel packetBytes:sum 120352
attr interpolationmode none
attr recordingmode sum
attr source packetBytes(messageSent)
attr unit B
scalar DNP3NetworkTopology.meter[18].interface$o.channel throughput:last 3211.4878237483
attr recordingmode last
attr source sumPerDuration(packetBits(messageSent))
attr unit bps
scalar DNP3NetworkTopology.meter[18].interface$o.channel utilization:last 0.049406328593803
attr recordingmode last
attr source timeavg(channelBusy)
par DNP3NetworkTopology.Concatenator.MeterInterface$o[18].channel typename "\"ned.DatarateChannel\""
par DNP3NetworkTopology.Concatenator.MeterInterface$o[18].channel disabled false
attr mutable ""
par DNP3NetworkTopology.Concatenator.MeterInterface$o[18].channel delay 0.002s
attr mutable ""
attr unit s
par DNP3NetworkTopology.Concatenator.MeterInterface$o[18].channel datarate 65000bps
attr mutable ""
attr unit bps
par DNP3NetworkTopology.Concatenator.MeterInterface$o[18].channel ber 0
attr mutable ""
par DNP3NetworkTopology.Concatenator.MeterInterface$o[18].channel per 0
attr mutable ""
scalar DNP3NetworkTopology.Concatenator.MeterInterface$o[18].channel packetsDiscarded:count 1
attr interpolationmode none
attr recordingmode count
attr source constant1(messageDiscarded)
scalar DNP3NetworkTopology.Concatenator.MeterInterface$o[18].channel packets:count 301
attr interpolationmode none
attr recordingmode count
attr source constant1(messageSent)
scalar DNP3NetworkTopology.Concatenator.MeterInterface$o[18].channel packetBytes:sum 18900
attr interpolationmode none
attr recordingmode sum
attr source packetBytes(messageSent)
attr unit B
scalar DNP3NetworkTopology.Concatenator.MeterInterface$o[18].channel throughput:last 504.34533753795
attr recordingmode last
attr source sumPerDuration(packetBits(messageSent))
attr unit bps
scalar DNP3NetworkTopology.Concatenator.MeterInterface$o[18].channel utilization:last 0.0077589742883975
attr recordingmode last
attr source timeavg(channelBusy)
par DNP3NetworkTopology.meter[19].interface$o.channel typename "\"ned.DatarateChannel\""
par DNP3NetworkTopology.meter[19].interface$o.channel disabled false
attr mutable ""
par DNP3NetworkTopology.meter[19].interface$o.channel delay 0.002s
attr mutable ""
attr unit s
par DNP3NetworkTopology.meter[19].interface$o.channel datarate 65000bps
attr mutable ""
attr unit bps
par DNP3NetworkTopology.meter[19].interface$o.channel ber 0
attr mutable ""
par DNP3NetworkTopology.meter[19].interface$o.channel per 0
attr mutable ""
scalar DNP3NetworkTopology.meter[19].interface$o.channel packetsDiscarded:count 1
attr interpolationmode none
attr recordingmode count
attr source constant1(messageDiscarded)
scalar DNP3NetworkTopology.meter[19].interface$o.channel packets:count 358
attr interpolationmode none
attr recordingmode count
attr source constant1(messageSent)
scalar DNP3NetworkTopology.meter[19].interface$o.channel packetBytes:sum 120410
attr interpolationmode none
attr recordingmode sum
attr source packetBytes(messageSent)
attr unit B
scalar DNP3NetworkTopology.meter[19].interface$o.channel throughput:last 3208.3242048061
attr recordingmode last
attr source sumPerDuration(packetBits(messageSent))
attr unit bps
scalar DNP3NetworkTopology.meter[19].interface$o.channel utilization:last 0.04935766041521
attr recordingmode last
attr source timeavg(channelBusy)
par DNP3NetworkTopology.Concatenator.MeterInterface$o[19].channel typename "\"ned.DatarateChannel\""
par DNP3NetworkTopology.Concatenator.MeterInterface$o[19].channel disabled false
attr mutable ""
par DNP3NetworkTopology.Concatenator.MeterInterface$o[19].channel delay 0.002s
attr mutable ""
attr unit s
par DNP3NetworkTopology.Concatenator.MeterInterface$o[19].channel datarate 65000bps
attr mutable ""
attr unit bps
par DNP3NetworkTopology.Concatenator.MeterInterface$o[19].channel ber 0
attr mutable ""
par DNP3NetworkTopology.Concatenator.MeterInterface$o[19].channel per 0
attr mutable ""
scalar DNP3NetworkTopology.Concatenator.MeterInterface$o[19].channel packetsDiscarded:count 1
attr interpolationmode none
attr recordingmode count
attr source constant1(messageDiscarded)
scalar DNP3NetworkTopology.Concatenator.MeterInterface$o[19].channel packets:count 303
attr interpolationmode none
attr recordingmode count
attr source constant1(messageSent)
scalar DNP3NetworkTopology.Concatenator.MeterInterface$o[19].channel packetBytes:sum 19026
attr interpolationmode none
attr recordingmode sum
attr source packetBytes(messageSent)
attr unit B
scalar DNP3NetworkTopology.Concatenator.MeterInterface$o[19].channel throughput:last 506.96316158621
attr recordingmode last
attr source sumPerDuration(packetBits(messageSent))
attr unit bps
scalar DNP3NetworkTopology.Concatenator.MeterInterface$o[19].channel utilization:last 0.0077992478178779
attr recordingmode last
attr source timeavg(channelBusy)
par DNP3NetworkTopology.meter[20].interface$o.channel typename "\"ned.DatarateChannel\""
par DNP3NetworkTopology.meter[20].interface$o.channel disabled false
attr mutable ""
par DNP3NetworkTopology.meter[20].interface$o.channel delay 0.002s
attr mutable ""
attr unit s
par DNP3NetworkTopology.meter[20].interface$o.channel datarate 65000bps
attr mutable ""
attr unit bps
par DNP3NetworkTopology.meter[20].interface$o.channel ber 0
attr mutable ""
par DNP3NetworkTopology.meter[20].interface$o.channel per 0
attr mutable ""
scalar DNP3NetworkTopology.meter[20].interface$o.channel packetsDiscarded:count 1
attr interpolationmode none
attr recordingmode count
attr source constant1(messageDiscarded)
scalar DNP3NetworkTopology.meter[20].interface$o.channel packets:count 373
attr interpolationmode none
attr recordingmode count
attr source constant1(messageSent)
scalar DNP3NetworkTopology.meter[20].interface$o.channel packetBytes:sum 118860
attr interpolationmode none
attr recordingmode sum
attr source packetBytes(messageSent)
attr unit B
scalar DNP3NetworkTopology.meter[20].interface$o.channel throughput:last 3166.6671790127
attr recordingmode last
attr source sumPerDuration(packetBits(messageSent))
attr unit bps
scalar DNP3NetworkTopology.meter[20].interface$o.channel utilization:last 0.048716798462778
attr recordingmode last
attr source timeavg(channelBusy)
par DNP3NetworkTopology.Concatenator.MeterInterface$o[20].channel typename "\"ned.DatarateChannel\""
par DNP3NetworkTopology.Concatenator.MeterInterface$o[20].channel disabled false
attr mutable ""
par DNP3NetworkTopology.Concatenator.MeterInterface$o[20].channel delay 0.002s
attr mutable ""
attr unit s
par DNP3NetworkTopology.Concatenator.MeterInterface$o[20].channel datarate 65000bps
attr mutable ""
attr unit bps
par DNP3NetworkTopology.Concatenator.MeterInterface$o[20].channel ber 0
attr mutable ""
par DNP3NetworkTopology.Concatenator.MeterInterface$o[20].channel per 0
attr mutable ""
scalar DNP3NetworkTopology.Concatenator.MeterInterface$o[20].channel packetsDiscarded:count 1
attr interpolationmode none
attr recordingmode count
attr source constant1(messageDiscarded)
scalar DNP3NetworkTopology.Concatenator.MeterInterface$o[20].channel packets:count 343
attr interpolationmode none
attr recordingmode count
attr source constant1(messageSent)
scalar DNP3NetworkTopology.Concatenator.MeterInterface$o[20].channel packetBytes:sum 21546
attr interpolationmode none
attr recordingmode sum
attr source packetBytes(messageSent)
attr unit B
scalar DNP3NetworkTopology.Concatenator.MeterInterface$o[20].channel throughput:last 574.0458315644
attr recordingmode last
attr source sumPerDuration(packetBits(messageSent))
attr unit bps
scalar DNP3NetworkTopology.Concatenator.MeterInterface$o[20].channel utilization:last 0.0088312643806134
attr recordingmode last
attr source timeavg(channelBusy)
par DNP3NetworkTopology.meter[21].interface$o.channel typename "\"ned.DatarateChannel\""
par DNP3NetworkTopology.meter[21].interface$o.channel disabled false
attr mutable ""
par DNP3NetworkTopology.meter[21].interface$o.channel delay 0.002s
attr mutable ""
attr unit s
par DNP3NetworkTopology.meter[21].interface$o.channel datarate 65000bps
attr mutable ""
attr unit bps
par DNP3NetworkTopology.meter[21].interface$o.channel ber 0
attr mutable ""
par DNP3NetworkTopology.meter[21].interface$o.channel per 0
attr mutable ""
scalar DNP3NetworkTopology.meter[21].interface$o.channel packetsDiscarded:count 1
attr interpolationmode none
attr recordingmode count
attr source constant1(messageDiscarded)
scalar DNP3NetworkTopology.meter[21].interface$o.channel packets:count 373
attr interpolationmode none
attr recordingmode count
attr source constant1(messageSent)
scalar DNP3NetworkTopology.meter[21].interface$o.channel packetBytes:sum 118860
attr interpolationmode none
attr recordingmode sum
attr source packetBytes(messageSent)
attr unit B
scalar DNP3NetworkTopology.meter[21].interface$o.channel throughput:last 3166.3099806646
attr recordingmode last
attr source sumPerDuration(packetBits(messageSent))
attr unit bps
scalar DNP3NetworkTopology.meter[21].interface$o.channel utilization:last 0.048711303364834
attr recordingmode last
attr source timeavg(channelBusy)
par DNP3NetworkTopology.Concatenator.MeterInterface$o[21].channel typename "\"ned.DatarateChannel\""
par DNP3NetworkTopology.Concatenator.MeterInterface$o[21].channel disabled false
attr mutable ""
par DNP3NetworkTopology.Concatenator.MeterInterface$o[21].channel delay 0.002s
attr mutable ""
attr unit s
par DNP3NetworkTopology.Concatenator.MeterInterface$o[21].channel datarate 65000bps
attr mutable ""
attr unit bps
par DNP3NetworkTopology.Concatenator.MeterInterface$o[21].channel ber 0
attr mutable ""
par DNP3NetworkTopology.Concatenator.MeterInterface$o[21].channel per 0
attr mutable ""
scalar DNP3NetworkTopology.Concatenator.MeterInterface$o[21].channel packetsDiscarded:count 1
attr interpolationmode none
attr recordingmode count
attr source constant1(messageDiscarded)
scalar DNP3NetworkTopology.Concatenator.MeterInterface$o[21].channel packets:count 343
attr interpolationmode none
attr recordingmode count
attr source constant1(messageSent)
scalar DNP3NetworkTopology.Concatenator.MeterInterface$o[21].channel packetBytes:sum 21546
attr interpolationmode none
attr recordingmode sum
attr source packetBytes(messageSent)
attr unit B
scalar DNP3NetworkTopology.Concatenator.MeterInterface$o[21].channel throughput:last 573.98107753409
attr recordingmode last
attr source sumPerDuration(packetBits(messageSent))
attr unit bps
scalar DNP3NetworkTopology.Concatenator.MeterInterface$o[21].channel utilization:last 0.0088302682121252
attr recordingmode last
attr source timeavg(channelBusy)
par DNP3NetworkTopology.meter[22].interface$o.channel typename "\"ned.DatarateChannel\""
par DNP3NetworkTopology.meter[22].interface$o.channel disabled false
attr mutable ""
par DNP3NetworkTopology.meter[22].interface$o.channel delay 0.002s
attr mutable ""
attr unit s
par DNP3NetworkTopology.meter[22].interface$o.channel datarate 65000bps
attr mutable ""
attr unit bps
par DNP3NetworkTopology.meter[22].interface$o.channel ber 0
attr mutable ""
par DNP3NetworkTopology.meter[22].interface$o.channel per 0
attr mutable ""
scalar DNP3NetworkTopology.meter[22].interface$o.channel packetsDiscarded:count 1
attr interpolationmode none
attr recordingmode count
attr source constant1(messageDiscarded)
scalar DNP3NetworkTopology.meter[22].interface$o.channel packets:count 373
attr interpolationmode none
attr recordingmode count
attr source constant1(messageSent)
scalar DNP3NetworkTopology.meter[22].interface$o.channel packetBytes:sum 118860
attr interpolationmode none
attr recordingmode sum
attr source packetBytes(messageSent)
attr unit B
scalar DNP3NetworkTopology.meter[22].interface$o.channel throughput:last 3165.9528628911
attr recordingmode last
attr source sumPerDuration(packetBits(messageSent))
attr unit bps
scalar DNP3NetworkTopology.meter[22].interface$o.channel utilization:last 0.04870580950641
attr recordingmode last
attr source timeavg(channelBusy)
par DNP3NetworkTopology.Concatenator.MeterInterface$o[22].channel typename "\"ned.DatarateChannel\""
par DNP3NetworkTopology.Concatenator.MeterInterface$o[22].channel disabled false
attr mutable ""
par DNP3NetworkTopology.Concatenator.MeterInterface$o[22].channel delay 0.002s
attr mutable ""
attr unit s
par DNP3NetworkTopology.Concatenator.MeterInterface$o[22].channel datarate 65000bps
attr mutable ""
attr unit bps
par DNP3NetworkTopology.Concatenator.MeterInterface$o[22].channel ber 0
attr mutable ""
par DNP3NetworkTopology.Concatenator.MeterInterface$o[22].channel per 0
attr mutable ""
scalar DNP3NetworkTopology.Concatenator.MeterInterface$o[22].channel packetsDiscarded:count 1
attr interpolationmode none
attr recordingmode count
attr source constant1(messageDiscarded)
scalar DNP3NetworkTopology.Concatenator.MeterInterface$o[22].channel packets:count 343
attr interpolationmode none
attr recordingmode count
attr source constant1(messageSent)
scalar DNP3NetworkTopology.Concatenator.MeterInterface$o[22].channel packetBytes:sum 21546
attr interpolationmode none
attr recordingmode sum
attr source packetBytes(messageSent)
attr unit B
scalar DNP3NetworkTopology.Concatenator.MeterInterface$o[22].channel throughput:last 573.916338111
attr recordingmode last
attr source sumPerDuration(packetBits(messageSent))
attr unit bps
scalar DNP3NetworkTopology.Concatenator.MeterInterface$o[22].channel utilization:last 0.0088292722683478
attr recordingmode last
attr source timeavg(channelBusy)
par DNP3NetworkTopology.meter[23].interface$o.channel typename "\"ned.DatarateChannel\""
par DNP3NetworkTopology.meter[23].interface$o.channel disabled false
attr mutable ""
par DNP3NetworkTopology.meter[23].interface$o.channel delay 0.002s
attr mutable ""
attr unit s
par DNP3NetworkTopology.meter[23].interface$o.channel datarate 65000bps
attr mutable ""
attr unit bps
par DNP3NetworkTopology.meter[23].interface$o.channel ber 0
attr mutable ""
par DNP3NetworkTopology.meter[23].interface$o.channel per 0
attr mutable ""
scalar DNP3NetworkTopology.meter[23].interface$o.channel packetsDiscarded:count 1
attr interpolationmode none
attr recordingmode count
attr source constant1(messageDiscarded)
scalar DNP3NetworkTopology.meter[23].interface$o.channel packets:count 373
attr interpolationmode none
attr recordingmode count
attr source constant1(messageSent)
scalar DNP3NetworkTopology.meter[23].interface$o.channel packetBytes:sum 118860
attr interpolationmode none
attr recordingmode sum
attr source packetBytes(messageSent)
attr unit B
scalar DNP3NetworkTopology.meter[23].interface$o.channel throughput:last 3165.5958256647
attr recordingmode last
attr source sumPerDuration(packetBits(messageSent))
attr unit bps
scalar DNP3NetworkTopology.meter[23].interface$o.channel utilization:last 0.048700316887084
attr recordingmode last
attr source timeavg(channelBusy)
par DNP3NetworkTopology.Concatenator.MeterInterface$o[23].channel typename "\"ned.DatarateChannel\""
par DNP3NetworkTopology.Concatenator.MeterInterface$o[23].channel disabled false
attr mutable ""
par DNP3NetworkTopology.Concatenator.MeterInterface$o[23].channel delay 0.002s
attr mutable ""
attr unit s
par DNP3NetworkTopology.Concatenator.MeterInterface$o[23].channel datarate 65000bps
attr mutable ""
attr unit bps
par DNP3NetworkTopology.Concatenator.MeterInterface$o[23].channel ber 0
attr mutable ""
par DNP3NetworkTopology.Concatenator.MeterInterface$o[23].channel per 0
attr mutable ""
scalar DNP3NetworkTopology.Concatenator.MeterInterface$o[23].channel packetsDiscarded:count 1
attr interpolationmode none
attr recordingmode count
attr source constant1(messageDiscarded)
scalar DNP3NetworkTopology.Concatenator.MeterInterface$o[23].channel packets:count 343
attr interpolationmode none
attr recordingmode count
attr source constant1(messageSent)
scalar DNP3NetworkTopology.Concatenator.MeterInterface$o[23].channel packetBytes:sum 21546
attr interpolationmode none
attr recordingmode sum
attr source packetBytes(messageSent)
attr unit B
scalar DNP3NetworkTopology.Concatenator.MeterInterface$o[23].channel throughput:last 573.85161329022
attr recordingmode last
attr source sumPerDuration(packetBits(messageSent))
attr unit bps
scalar DNP3NetworkTopology.Concatenator.MeterInterface$o[23].channel utilization:last 0.008828276549205
attr recordingmode last
attr source timeavg(channelBusy)
par DNP3NetworkTopology.meter[24].interface$o.channel typename "\"ned.DatarateChannel\""
par DNP3NetworkTopology.meter[24].interface$o.channel disabled false
attr mutable ""
par DNP3NetworkTopology.meter[24].interface$o.channel delay 0.002s
attr mutable ""
attr unit s
par DNP3NetworkTopology.meter[24].interface$o.channel datarate 65000bps
attr mutable ""
attr unit bps
par DNP3NetworkTopology.meter[24].interface$o.channel ber 0
attr mutable ""
par DNP3NetworkTopology.meter[24].interface$o.channel per 0
attr mutable ""
scalar DNP3NetworkTopology.meter[24].interface$o.channel packetsDiscarded:count 1
attr interpolationmode none
attr recordingmode count
attr source constant1(messageDiscarded)
scalar DNP3NetworkTopology.meter[24].interface$o.channel packets:count 371
attr interpolationmode none
attr recordingmode count
attr source constant1(messageSent)
scalar DNP3NetworkTopology.meter[24].interface$o.channel packetBytes:sum 118744
attr interpolationmode none
attr recordingmode sum
attr source packetBytes(messageSent)
attr unit B
scalar DNP3NetworkTopology.meter[24].interface$o.channel throughput:last 3162.1497918189
attr recordingmode last
attr source sumPerDuration(packetBits(messageSent))
attr unit bps
scalar DNP3NetworkTopology.meter[24].interface$o.channel utilization:last 0.048647302372009
attr recordingmode last
attr source timeavg(channelBusy)
par DNP3NetworkTopology.Concatenator.MeterInterface$o[24].channel typename "\"ned.DatarateChannel\""
par DNP3NetworkTopology.Concatenator.MeterInterface$o[24].channel disabled false
attr mutable ""
par DNP3NetworkTopology.Concatenator.MeterInterface$o[24].channel delay 0.002s
attr mutable ""
attr unit s
par DNP3NetworkTopology.Concatenator.MeterInterface$o[24].channel datarate 65000bps
attr mutable ""
attr unit bps
par DNP3NetworkTopology.Concatenator.MeterInterface$o[24].channel ber 0
attr mutable ""
par DNP3NetworkTopology.Concatenator.MeterInterface$o[24].channel per 0
attr mutable ""
scalar DNP3NetworkTopology.Concatenator.MeterInterface$o[24].channel packetsDiscarded:count 1
attr interpolationmode none
attr recordingmode count
attr source constant1(messageDiscarded)
scalar DNP3NetworkTopology.Concatenator.MeterInterface$o[24].channel packets:count 339
attr interpolationmode none
attr recordingmode count
attr source constant1(messageSent)
scalar DNP3NetworkTopology.Concatenator.MeterInterface$o[24].channel packetBytes:sum 21294
attr interpolationmode none
attr recordingmode sum
attr source packetBytes(messageSent)
attr unit B
scalar DNP3NetworkTopology.Concatenator.MeterInterface$o[24].channel throughput:last 567.07594513618
attr recordingmode last
attr source sumPerDuration(packetBits(messageSent))
attr unit bps
scalar DNP3NetworkTopology.Concatenator.MeterInterface$o[24].channel utilization:last 0.0087240380013505
attr recordingmode last
attr source timeavg(channelBusy)
par DNP3NetworkTopology.meter[25].interface$o.channel typename "\"ned.DatarateChannel\""
par DNP3NetworkTopology.meter[25].interface$o.channel disabled false
attr mutable ""
par DNP3NetworkTopology.meter[25].interface$o.channel delay 0.002s
attr mutable ""
attr unit s
par DNP3NetworkTopology.meter[25].interface$o.channel datarate 65000bps
attr mutable ""
attr unit bps
par DNP3NetworkTopology.meter[25].interface$o.channel ber 0
attr mutable ""
par DNP3NetworkTopology.meter[25].interface$o.channel per 0
attr mutable ""
scalar DNP3NetworkTopology.meter[25].interface$o.channel packetsDiscarded:count 1
attr interpolationmode none
attr recordingmode count
attr source constant1(messageDiscarded)
scalar DNP3NetworkTopology.meter[25].interface$o.channel packets:count 374
attr interpolationmode none
attr recordingmode count
attr source constant1(messageSent)
scalar DNP3NetworkTopology.meter[25].interface$o.channel packetBytes:sum 118434
attr interpolationmode none
attr recordingmode sum
attr source packetBytes(messageSent)
attr unit B
scalar DNP3NetworkTopology.meter[25].interface$o.channel throughput:last 3153.5389023114
attr recordingmode last
attr source sumPerDuration(packetBits(messageSent))
attr unit bps
scalar DNP3NetworkTopology.meter[25].interface$o.channel utilization:last 0.048514830426603
attr recordingmode last
attr source timeavg(channelBusy)
par DNP3NetworkTopology.Concatenator.MeterInterface$o[25].channel typename "\"ned.DatarateChannel\""
par DNP3NetworkTopology.Concatenator.MeterInterface$o[25].channel disabled false
attr mutable ""
par DNP3NetworkTopology.Concatenator.MeterInterface$o[25].channel delay 0.002s
attr mutable ""
attr unit s
par DNP3NetworkTopology.Concatenator.MeterInterface$o[25].channel datarate 65000bps
attr mutable ""
attr unit bps
par DNP3NetworkTopology.Concatenator.MeterInterface$o[25].channel ber 0
attr mutable ""
par DNP3NetworkTopology.Concatenator.MeterInterface$o[25].channel per 0
attr mutable ""
scalar DNP3NetworkTopology.Concatenator.MeterInterface$o[25].channel packetsDiscarded:count 1
attr interpolationmode none
attr recordingmode count
attr source constant1(messageDiscarded)
scalar DNP3NetworkTopology.Concatenator.MeterInterface$o[25].channel packets:count 347
attr interpolationmode none
attr recordingmode count
attr source constant1(messageSent)
scalar DNP3NetworkTopology.Concatenator.MeterInterface$o[25].channel packetBytes:sum 21798
attr interpolationmode none
attr recordingmode sum
attr source packetBytes(messageSent)
attr unit B
scalar DNP3NetworkTopology.Concatenator.MeterInterface$o[25].channel throughput:last 580.43240869232
attr recordingmode last
attr source sumPerDuration(packetBits(messageSent))
attr unit bps
scalar DNP3NetworkTopology.Concatenator.MeterInterface$o[25].channel utilization:last 0.0089295171972039
attr recordingmode last
attr source timeavg(channelBusy)
par DNP3NetworkTopology.meter[26].interface$o.channel typename "\"ned.DatarateChannel\""
par DNP3NetworkTopology.meter[26].interface$o.channel disabled false
attr mutable ""
par DNP3NetworkTopology.meter[26].interface$o.channel delay 0.002s
attr mutable ""
attr unit s
par DNP3NetworkTopology.meter[26].interface$o.channel datarate 65000bps
attr mutable ""
attr unit bps
par DNP3NetworkTopology.meter[26].interface$o.channel ber 0
attr mutable ""
par DNP3NetworkTopology.meter[26].interface$o.channel per 0
attr mutable ""
scalar DNP3NetworkTopology.meter[26].interface$o.channel packetsDiscarded:count 1
attr interpolationmode none
attr recordingmode count
attr source constant1(messageDiscarded)
scalar DNP3NetworkTopology.meter[26].interface$o.channel packets:count 372
attr interpolationmode none
attr recordingmode count
attr source constant1(messageSent)
scalar DNP3NetworkTopology.meter[26].interface$o.channel packetBytes:sum 118318
attr interpolationmode none
attr recordingmode sum
attr source packetBytes(messageSent)
attr unit B
scalar DNP3NetworkTopology.meter[26].interface$o.channel throughput:last 3150.0950046966
attr recordingmode last
attr source sumPerDuration(packetBits(messageSent))
attr unit bps
scalar DNP3NetworkTopology.meter[26].interface$o.channel utilization:last 0.048461848775002
attr recordingmode last
attr source timeavg(channelBusy)
par DNP3NetworkTopology.Concatenator.MeterInterface$o[26].channel typename "\"ned.DatarateChannel\""
par DNP3NetworkTopology.Concatenator.MeterInterface$o[26].channel disabled false
attr mutable ""
par DNP3NetworkTopology.Concatenator.MeterInterface$o[26].channel delay 0.002s
attr mutable ""
attr unit s
par DNP3NetworkTopology.Concatenator.MeterInterface$o[26].channel datarate 65000bps
attr mutable ""
attr unit bps
par DNP3NetworkTopology.Concatenator.MeterInterface$o[26].channel ber 0
attr mutable ""
par DNP3NetworkTopology.Concatenator.MeterInterface$o[26].channel per 0
attr mutable ""
scalar DNP3NetworkTopology.Concatenator.MeterInterface$o[26].channel packetsDiscarded:count 1
attr interpolationmode none
attr recordingmode count
attr source constant1(messageDiscarded)
scalar DNP3NetworkTopology.Concatenator.MeterInterface$o[26].channel packets:count 343
attr interpolationmode none
attr recordingmode count
attr source constant1(messageSent)
scalar DNP3NetworkTopology.Concatenator.MeterInterface$o[26].channel packetBytes:sum 21546
attr interpolationmode none
attr recordingmode sum
attr source packetBytes(messageSent)
attr unit B
scalar DNP3NetworkTopology.Concatenator.MeterInterface$o[26].channel throughput:last 573.65752639223
attr recordingmode last
attr source sumPerDuration(packetBits(messageSent))
attr unit bps
scalar DNP3NetworkTopology.Concatenator.MeterInterface$o[26].channel utilization:last 0.0088252907388248
attr recordingmode last
attr source timeavg(channelBusy)
par DNP3NetworkTopology.meter[27].interface$o.channel typename "\"ned.DatarateChannel\""
par DNP3NetworkTopology.meter[27].interface$o.channel disabled false
attr mutable ""
par DNP3NetworkTopology.meter[27].interface$o.channel delay 0.002s
attr mutable ""
attr unit s
par DNP3NetworkTopology.meter[27].interface$o.channel datarate 65000bps
attr mutable ""
attr unit bps
par DNP3NetworkTopology.meter[27].interface$o.channel ber 0
attr mutable ""
par DNP3NetworkTopology.meter[27].interface$o.channel per 0
attr mutable ""
scalar DNP3NetworkTopology.meter[27].interface$o.channel packetsDiscarded:count 1
attr interpolationmode none
attr recordingmode count
attr source constant1(messageDiscarded)
scalar DNP3NetworkTopology.meter[27].interface$o.channel packets:count 375
attr interpolationmode none
attr recordingmode count
attr source constant1(messageSent)
scalar DNP3NetworkTopology.meter[27].interface$o.channel packetBytes:sum 118492
attr interpolationmode none
attr recordingmode sum
attr source packetBytes(messageSent)
attr unit B
scalar DNP3NetworkTopology.meter[27].interface$o.channel throughput:last 3154.3719647655
attr recordingmode last
attr source sumPerDuration(packetBits(messageSent))
attr unit bps
scalar DNP3NetworkTopology.meter[27].interface$o.channel utilization:last 0.048527646727479
attr recordingmode last
attr source timeavg(channelBusy)
par DNP3NetworkTopology.Concatenator.MeterInterface$o[27].channel typename "\"ned.DatarateChannel\""
par DNP3NetworkTopology.Concatenator.MeterInterface$o[27].channel disabled false
attr mutable ""
par DNP3NetworkTopology.Concatenator.MeterInterface$o[27].channel delay 0.002s
attr mutable ""
attr unit s
[...]
attr unit s
scalar DNP3NetworkTopology.meter[15] retransmissions 74
scalar DNP3NetworkTopology.meter[15] generatedEventPackets 138
par DNP3NetworkTopology.meter[16] typename "\"basicbaseline.DNP3SmartMeter\""
par DNP3NetworkTopology.meter[16] meterId 16
par DNP3NetworkTopology.meter[16] totalPackets 500
par DNP3NetworkTopology.meter[16] eventBytes 542
par DNP3NetworkTopology.meter[16] ackTimeout 2s
attr unit s
par DNP3NetworkTopology.meter[16] eventInterval 1s
attr unit s
par DNP3NetworkTopology.meter[16] stopGenerationTime 300s
attr unit s
scalar DNP3NetworkTopology.meter[16] retransmissions 74
scalar DNP3NetworkTopology.meter[16] generatedEventPackets 126
par DNP3NetworkTopology.meter[17] typename "\"basicbaseline.DNP3SmartMeter\""
par DNP3NetworkTopology.meter[17] meterId 17
par DNP3NetworkTopology.meter[17] totalPackets 500
par DNP3NetworkTopology.meter[17] eventBytes 542
par DNP3NetworkTopology.meter[17] ackTimeout 2s
attr unit s
par DNP3NetworkTopology.meter[17] eventInterval 1s
attr unit s
par DNP3NetworkTopology.meter[17] stopGenerationTime 300s
attr unit s
scalar DNP3NetworkTopology.meter[17] retransmissions 74
scalar DNP3NetworkTopology.meter[17] generatedEventPackets 126
par DNP3NetworkTopology.meter[18] typename "\"basicbaseline.DNP3SmartMeter\""
par DNP3NetworkTopology.meter[18] meterId 18
par DNP3NetworkTopology.meter[18] totalPackets 500
par DNP3NetworkTopology.meter[18] eventBytes 542
par DNP3NetworkTopology.meter[18] ackTimeout 2s
attr unit s
par DNP3NetworkTopology.meter[18] eventInterval 1s
attr unit s
par DNP3NetworkTopology.meter[18] stopGenerationTime 300s
attr unit s
scalar DNP3NetworkTopology.meter[18] retransmissions 56
scalar DNP3NetworkTopology.meter[18] generatedEventPackets 150
par DNP3NetworkTopology.meter[19] typename "\"basicbaseline.DNP3SmartMeter\""
par DNP3NetworkTopology.meter[19] meterId 19
par DNP3NetworkTopology.meter[19] totalPackets 500
par DNP3NetworkTopology.meter[19] eventBytes 542
par DNP3NetworkTopology.meter[19] ackTimeout 2s
attr unit s
par DNP3NetworkTopology.meter[19] eventInterval 1s
attr unit s
par DNP3NetworkTopology.meter[19] stopGenerationTime 300s
attr unit s
scalar DNP3NetworkTopology.meter[19] retransmissions 55
scalar DNP3NetworkTopology.meter[19] generatedEventPackets 151
par DNP3NetworkTopology.meter[20] typename "\"basicbaseline.DNP3SmartMeter\""
par DNP3NetworkTopology.meter[20] meterId 20
par DNP3NetworkTopology.meter[20] totalPackets 500
par DNP3NetworkTopology.meter[20] eventBytes 542
par DNP3NetworkTopology.meter[20] ackTimeout 2s
attr unit s
par DNP3NetworkTopology.meter[20] eventInterval 1s
attr unit s
par DNP3NetworkTopology.meter[20] stopGenerationTime 300s
attr unit s
scalar DNP3NetworkTopology.meter[20] retransmissions 30
scalar DNP3NetworkTopology.meter[20] generatedEventPackets 171
par DNP3NetworkTopology.meter[21] typename "\"basicbaseline.DNP3SmartMeter\""
par DNP3NetworkTopology.meter[21] meterId 21
par DNP3NetworkTopology.meter[21] totalPackets 500
par DNP3NetworkTopology.meter[21] eventBytes 542
par DNP3NetworkTopology.meter[21] ackTimeout 2s
attr unit s
par DNP3NetworkTopology.meter[21] eventInterval 1s
attr unit s
par DNP3NetworkTopology.meter[21] stopGenerationTime 300s
attr unit s
scalar DNP3NetworkTopology.meter[21] retransmissions 30
scalar DNP3NetworkTopology.meter[21] generatedEventPackets 171
par DNP3NetworkTopology.meter[22] typename "\"basicbaseline.DNP3SmartMeter\""
par DNP3NetworkTopology.meter[22] meterId 22
par DNP3NetworkTopology.meter[22] totalPackets 500
par DNP3NetworkTopology.meter[22] eventBytes 542
par DNP3NetworkTopology.meter[22] ackTimeout 2s
attr unit s
par DNP3NetworkTopology.meter[22] eventInterval 1s
attr unit s
par DNP3NetworkTopology.meter[22] stopGenerationTime 300s
attr unit s
scalar DNP3NetworkTopology.meter[22] retransmissions 30
scalar DNP3NetworkTopology.meter[22] generatedEventPackets 171
par DNP3NetworkTopology.meter[23] typename "\"basicbaseline.DNP3SmartMeter\""
par DNP3NetworkTopology.meter[23] meterId 23
par DNP3NetworkTopology.meter[23] totalPackets 500
par DNP3NetworkTopology.meter[23] eventBytes 542
par DNP3NetworkTopology.meter[23] ackTimeout 2s
attr unit s
par DNP3NetworkTopology.meter[23] eventInterval 1s
attr unit s
par DNP3NetworkTopology.meter[23] stopGenerationTime 300s
attr unit s
scalar DNP3NetworkTopology.meter[23] retransmissions 30
scalar DNP3NetworkTopology.meter[23] generatedEventPackets 171
par DNP3NetworkTopology.meter[24] typename "\"basicbaseline.DNP3SmartMeter\""
par DNP3NetworkTopology.meter[24] meterId 24
par DNP3NetworkTopology.meter[24] totalPackets 500
par DNP3NetworkTopology.meter[24] eventBytes 542
par DNP3NetworkTopology.meter[24] ackTimeout 2s
attr unit s
par DNP3NetworkTopology.meter[24] eventInterval 1s
attr unit s
par DNP3NetworkTopology.meter[24] stopGenerationTime 300s
attr unit s
scalar DNP3NetworkTopology.meter[24] retransmissions 32
scalar DNP3NetworkTopology.meter[24] generatedEventPackets 169
par DNP3NetworkTopology.meter[25] typename "\"basicbaseline.DNP3SmartMeter\""
par DNP3NetworkTopology.meter[25] meterId 25
par DNP3NetworkTopology.meter[25] totalPackets 500
par DNP3NetworkTopology.meter[25] eventBytes 542
par DNP3NetworkTopology.meter[25] ackTimeout 2s
attr unit s
par DNP3NetworkTopology.meter[25] eventInterval 1s
attr unit s
par DNP3NetworkTopology.meter[25] stopGenerationTime 300s
attr unit s
scalar DNP3NetworkTopology.meter[25] retransmissions 27
scalar DNP3NetworkTopology.meter[25] generatedEventPackets 173
par DNP3NetworkTopology.meter[26] typename "\"basicbaseline.DNP3SmartMeter\""
par DNP3NetworkTopology.meter[26] meterId 26
par DNP3NetworkTopology.meter[26] totalPackets 500
par DNP3NetworkTopology.meter[26] eventBytes 542
par DNP3NetworkTopology.meter[26] ackTimeout 2s
attr unit s
par DNP3NetworkTopology.meter[26] eventInterval 1s
attr unit s
par DNP3NetworkTopology.meter[26] stopGenerationTime 300s
attr unit s
scalar DNP3NetworkTopology.meter[26] retransmissions 29
scalar DNP3NetworkTopology.meter[26] generatedEventPackets 171
par DNP3NetworkTopology.meter[27] typename "\"basicbaseline.DNP3SmartMeter\""
par DNP3NetworkTopology.meter[27] meterId 27
par DNP3NetworkTopology.meter[27] totalPackets 500
par DNP3NetworkTopology.meter[27] eventBytes 542
par DNP3NetworkTopology.meter[27] ackTimeout 2s
attr unit s
par DNP3NetworkTopology.meter[27] eventInterval 1s
attr unit s
par DNP3NetworkTopology.meter[27] stopGenerationTime 300s
attr unit s
scalar DNP3NetworkTopology.meter[27] retransmissions 26
scalar DNP3NetworkTopology.meter[27] generatedEventPackets 174
par DNP3NetworkTopology.meter[28] typename "\"basicbaseline.DNP3SmartMeter\""
par DNP3NetworkTopology.meter[28] meterId 28
par DNP3NetworkTopology.meter[28] totalPackets 500
par DNP3NetworkTopology.meter[28] eventBytes 542
par DNP3NetworkTopology.meter[28] ackTimeout 2s
attr unit s
par DNP3NetworkTopology.meter[28] eventInterval 1s
attr unit s
par DNP3NetworkTopology.meter[28] stopGenerationTime 300s
attr unit s
scalar DNP3NetworkTopology.meter[28] retransmissions 26
scalar DNP3NetworkTopology.meter[28] generatedEventPackets 174
par DNP3NetworkTopology.meter[29] typename "\"basicbaseline.DNP3SmartMeter\""
par DNP3NetworkTopology.meter[29] meterId 29
par DNP3NetworkTopology.meter[29] totalPackets 500
par DNP3NetworkTopology.meter[29] eventBytes 542
par DNP3NetworkTopology.meter[29] ackTimeout 2s
attr unit s
par DNP3NetworkTopology.meter[29] eventInterval 1s
attr unit s
par DNP3NetworkTopology.meter[29] stopGenerationTime 300s
attr unit s
scalar DNP3NetworkTopology.meter[29] retransmissions 26
scalar DNP3NetworkTopology.meter[29] generatedEventPackets 174
par DNP3NetworkTopology.meter[30] typename "\"basicbaseline.DNP3SmartMeter\""
par DNP3NetworkTopology.meter[30] meterId 30
par DNP3NetworkTopology.meter[30] totalPackets 500
par DNP3NetworkTopology.meter[30] eventBytes 542
par DNP3NetworkTopology.meter[30] ackTimeout 2s
attr unit s
par DNP3NetworkTopology.meter[30] eventInterval 1s
attr unit s
par DNP3NetworkTopology.meter[30] stopGenerationTime 300s
attr unit s
scalar DNP3NetworkTopology.meter[30] retransmissions 58
scalar DNP3NetworkTopology.meter[30] generatedEventPackets 147
par DNP3NetworkTopology.meter[31] typename "\"basicbaseline.DNP3SmartMeter\""
par DNP3NetworkTopology.meter[31] meterId 31
par DNP3NetworkTopology.meter[31] totalPackets 500
par DNP3NetworkTopology.meter[31] eventBytes 542
par DNP3NetworkTopology.meter[31] ackTimeout 2s
attr unit s
par DNP3NetworkTopology.meter[31] eventInterval 1s
attr unit s
par DNP3NetworkTopology.meter[31] stopGenerationTime 300s
attr unit s
scalar DNP3NetworkTopology.meter[31] retransmissions 58
scalar DNP3NetworkTopology.meter[31] generatedEventPackets 147
par DNP3NetworkTopology.meter[32] typename "\"basicbaseline.DNP3SmartMeter\""
par DNP3NetworkTopology.meter[32] meterId 32
par DNP3NetworkTopology.meter[32] totalPackets 500
par DNP3NetworkTopology.meter[32] eventBytes 542
par DNP3NetworkTopology.meter[32] ackTimeout 2s
attr unit s
par DNP3NetworkTopology.meter[32] eventInterval 1s
attr unit s
par DNP3NetworkTopology.meter[32] stopGenerationTime 300s
attr unit s
scalar DNP3NetworkTopology.meter[32] retransmissions 58
scalar DNP3NetworkTopology.meter[32] generatedEventPackets 147
par DNP3NetworkTopology.meter[33] typename "\"basicbaseline.DNP3SmartMeter\""
par DNP3NetworkTopology.meter[33] meterId 33
par DNP3NetworkTopology.meter[33] totalPackets 500
par DNP3NetworkTopology.meter[33] eventBytes 542
par DNP3NetworkTopology.meter[33] ackTimeout 2s
attr unit s
par DNP3NetworkTopology.meter[33] eventInterval 1s
attr unit s
par DNP3NetworkTopology.meter[33] stopGenerationTime 300s
attr unit s
scalar DNP3NetworkTopology.meter[33] retransmissions 58
scalar DNP3NetworkTopology.meter[33] generatedEventPackets 147
par DNP3NetworkTopology.meter[34] typename "\"basicbaseline.DNP3SmartMeter\""
par DNP3NetworkTopology.meter[34] meterId 34
par DNP3NetworkTopology.meter[34] totalPackets 500
par DNP3NetworkTopology.meter[34] eventBytes 542
par DNP3NetworkTopology.meter[34] ackTimeout 2s
attr unit s
par DNP3NetworkTopology.meter[34] eventInterval 1s
attr unit s
par DNP3NetworkTopology.meter[34] stopGenerationTime 300s
attr unit s
scalar DNP3NetworkTopology.meter[34] retransmissions 58
scalar DNP3NetworkTopology.meter[34] generatedEventPackets 147
par DNP3NetworkTopology.meter[35] typename "\"basicbaseline.DNP3SmartMeter\""
par DNP3NetworkTopology.meter[35] meterId 35
par DNP3NetworkTopology.meter[35] totalPackets 500
par DNP3NetworkTopology.meter[35] eventBytes 542
par DNP3NetworkTopology.meter[35] ackTimeout 2s
attr unit s
par DNP3NetworkTopology.meter[35] eventInterval 1s
attr unit s
par DNP3NetworkTopology.meter[35] stopGenerationTime 300s
attr unit s
scalar DNP3NetworkTopology.meter[35] retransmissions 58
scalar DNP3NetworkTopology.meter[35] generatedEventPackets 147
par DNP3NetworkTopology.meter[36] typename "\"basicbaseline.DNP3SmartMeter\""
par DNP3NetworkTopology.meter[36] meterId 36
par DNP3NetworkTopology.meter[36] totalPackets 500
par DNP3NetworkTopology.meter[36] eventBytes 542
par DNP3NetworkTopology.meter[36] ackTimeout 2s
attr unit s
par DNP3NetworkTopology.meter[36] eventInterval 1s
attr unit s
par DNP3NetworkTopology.meter[36] stopGenerationTime 300s
attr unit s
scalar DNP3NetworkTopology.meter[36] retransmissions 62
scalar DNP3NetworkTopology.meter[36] generatedEventPackets 144
par DNP3NetworkTopology.meter[37] typename "\"basicbaseline.DNP3SmartMeter\""
par DNP3NetworkTopology.meter[37] meterId 37
par DNP3NetworkTopology.meter[37] totalPackets 500
par DNP3NetworkTopology.meter[37] eventBytes 542
par DNP3NetworkTopology.meter[37] ackTimeout 2s
attr unit s
par DNP3NetworkTopology.meter[37] eventInterval 1s
attr unit s
par DNP3NetworkTopology.meter[37] stopGenerationTime 300s
attr unit s
scalar DNP3NetworkTopology.meter[37] retransmissions 62
scalar DNP3NetworkTopology.meter[37] generatedEventPackets 144
par DNP3NetworkTopology.meter[38] typename "\"basicbaseline.DNP3SmartMeter\""
par DNP3NetworkTopology.meter[38] meterId 38
par DNP3NetworkTopology.meter[38] totalPackets 500
par DNP3NetworkTopology.meter[38] eventBytes 542
par DNP3NetworkTopology.meter[38] ackTimeout 2s
attr unit s
par DNP3NetworkTopology.meter[38] eventInterval 1s
attr unit s
par DNP3NetworkTopology.meter[38] stopGenerationTime 300s
attr unit s
scalar DNP3NetworkTopology.meter[38] retransmissions 62
scalar DNP3NetworkTopology.meter[38] generatedEventPackets 144
par DNP3NetworkTopology.meter[39] typename "\"basicbaseline.DNP3SmartMeter\""
par DNP3NetworkTopology.meter[39] meterId 39
par DNP3NetworkTopology.meter[39] totalPackets 500
par DNP3NetworkTopology.meter[39] eventBytes 542
par DNP3NetworkTopology.meter[39] ackTimeout 2s
attr unit s
par DNP3NetworkTopology.meter[39] eventInterval 1s
attr unit s
par DNP3NetworkTopology.meter[39] stopGenerationTime 300s
attr unit s
scalar DNP3NetworkTopology.meter[39] retransmissions 62
scalar DNP3NetworkTopology.meter[39] generatedEventPackets 144
par DNP3NetworkTopology.meter[40] typename "\"basicbaseline.DNP3SmartMeter\""
par DNP3NetworkTopology.meter[40] meterId 40
par DNP3NetworkTopology.meter[40] totalPackets 500
par DNP3NetworkTopology.meter[40] eventBytes 542
par DNP3NetworkTopology.meter[40] ackTimeout 2s
attr unit s
par DNP3NetworkTopology.meter[40] eventInterval 1s
attr unit s
par DNP3NetworkTopology.meter[40] stopGenerationTime 300s
attr unit s
scalar DNP3NetworkTopology.meter[40] retransmissions 62
scalar DNP3NetworkTopology.meter[40] generatedEventPackets 138
par DNP3NetworkTopology.meter[41] typename "\"basicbaseline.DNP3SmartMeter\""
par DNP3NetworkTopology.meter[41] meterId 41
par DNP3NetworkTopology.meter[41] totalPackets 500
par DNP3NetworkTopology.meter[41] eventBytes 542
par DNP3NetworkTopology.meter[41] ackTimeout 2s
attr unit s
par DNP3NetworkTopology.meter[41] eventInterval 1s
attr unit s
par DNP3NetworkTopology.meter[41] stopGenerationTime 300s
attr unit s
scalar DNP3NetworkTopology.meter[41] retransmissions 62
scalar DNP3NetworkTopology.meter[41] generatedEventPackets 138
par DNP3NetworkTopology.meter[42] typename "\"basicbaseline.DNP3SmartMeter\""
par DNP3NetworkTopology.meter[42] meterId 42
par DNP3NetworkTopology.meter[42] totalPackets 500
par DNP3NetworkTopology.meter[42] eventBytes 542
par DNP3NetworkTopology.meter[42] ackTimeout 2s
attr unit s
par DNP3NetworkTopology.meter[42] eventInterval 1s
attr unit s
par DNP3NetworkTopology.meter[42] stopGenerationTime 300s
attr unit s
scalar DNP3NetworkTopology.meter[42] retransmissions 62
scalar DNP3NetworkTopology.meter[42] generatedEventPackets 138
par DNP3NetworkTopology.meter[43] typename "\"basicbaseline.DNP3SmartMeter\""
par DNP3NetworkTopology.meter[43] meterId 43
par DNP3NetworkTopology.meter[43] totalPackets 500
par DNP3NetworkTopology.meter[43] eventBytes 542
par DNP3NetworkTopology.meter[43] ackTimeout 2s
attr unit s
par DNP3NetworkTopology.meter[43] eventInterval 1s
attr unit s
par DNP3NetworkTopology.meter[43] stopGenerationTime 300s
attr unit s
scalar DNP3NetworkTopology.meter[43] retransmissions 61
scalar DNP3NetworkTopology.meter[43] generatedEventPackets 138
par DNP3NetworkTopology.meter[44] typename "\"basicbaseline.DNP3SmartMeter\""
par DNP3NetworkTopology.meter[44] meterId 44
par DNP3NetworkTopology.meter[44] totalPackets 500
par DNP3NetworkTopology.meter[44] eventBytes 542
par DNP3NetworkTopology.meter[44] ackTimeout 2s
attr unit s
par DNP3NetworkTopology.meter[44] eventInterval 1s
attr unit s
par DNP3NetworkTopology.meter[44] stopGenerationTime 300s
attr unit s
scalar DNP3NetworkTopology.meter[44] retransmissions 61
scalar DNP3NetworkTopology.meter[44] generatedEventPackets 138
par DNP3NetworkTopology.meter[45] typename "\"basicbaseline.DNP3SmartMeter\""
par DNP3NetworkTopology.meter[45] meterId 45
par DNP3NetworkTopology.meter[45] totalPackets 500
par DNP3NetworkTopology.meter[45] eventBytes 542
par DNP3NetworkTopology.meter[45] ackTimeout 2s
attr unit s
par DNP3NetworkTopology.meter[45] eventInterval 1s
attr unit s
par DNP3NetworkTopology.meter[45] stopGenerationTime 300s
attr unit s
scalar DNP3NetworkTopology.meter[45] retransmissions 49
scalar DNP3NetworkTopology.meter[45] generatedEventPackets 150
par DNP3NetworkTopology.meter[46] typename "\"basicbaseline.DNP3SmartMeter\""
par DNP3NetworkTopology.meter[46] meterId 46
par DNP3NetworkTopology.meter[46] totalPackets 500
par DNP3NetworkTopology.meter[46] eventBytes 542
par DNP3NetworkTopology.meter[46] ackTimeout 2s
attr unit s
par DNP3NetworkTopology.meter[46] eventInterval 1s
attr unit s
par DNP3NetworkTopology.meter[46] stopGenerationTime 300s
attr unit s
scalar DNP3NetworkTopology.meter[46] retransmissions 51
scalar DNP3NetworkTopology.meter[46] generatedEventPackets 149
par DNP3NetworkTopology.meter[47] typename "\"basicbaseline.DNP3SmartMeter\""
par DNP3NetworkTopology.meter[47] meterId 47
par DNP3NetworkTopology.meter[47] totalPackets 500
par DNP3NetworkTopology.meter[47] eventBytes 542
par DNP3NetworkTopology.meter[47] ackTimeout 2s
attr unit s
par DNP3NetworkTopology.meter[47] eventInterval 1s
attr unit s
par DNP3NetworkTopology.meter[47] stopGenerationTime 300s
attr unit s
scalar DNP3NetworkTopology.meter[47] retransmissions 39
scalar DNP3NetworkTopology.meter[47] generatedEventPackets 149
par DNP3NetworkTopology.meter[48] typename "\"basicbaseline.DNP3SmartMeter\""
par DNP3NetworkTopology.meter[48] meterId 48
par DNP3NetworkTopology.meter[48] totalPackets 500
par DNP3NetworkTopology.meter[48] eventBytes 542
par DNP3NetworkTopology.meter[48] ackTimeout 2s
attr unit s
par DNP3NetworkTopology.meter[48] eventInterval 1s
attr unit s
par DNP3NetworkTopology.meter[48] stopGenerationTime 300s
attr unit s
scalar DNP3NetworkTopology.meter[48] retransmissions 85
scalar DNP3NetworkTopology.meter[48] generatedEventPackets 114
par DNP3NetworkTopology.meter[49] typename "\"basicbaseline.DNP3SmartMeter\""
par DNP3NetworkTopology.meter[49] meterId 49
par DNP3NetworkTopology.meter[49] totalPackets 500
par DNP3NetworkTopology.meter[49] eventBytes 542
par DNP3NetworkTopology.meter[49] ackTimeout 2s
attr unit s
par DNP3NetworkTopology.meter[49] eventInterval 1s
attr unit s
par DNP3NetworkTopology.meter[49] stopGenerationTime 300s
attr unit s
scalar DNP3NetworkTopology.meter[49] retransmissions 62
scalar DNP3NetworkTopology.meter[49] generatedEventPackets 125
par DNP3NetworkTopology.Concatenator typename "\"basicbaseline.Concatenator\""
scalar DNP3NetworkTopology.Concatenator droppedPackets 2662
scalar DNP3NetworkTopology.Concatenator queueLength:mean 30.572110370113
attr recordingmode mean
attr source queueLength
attr title "Queue Length, mean"
scalar DNP3NetworkTopology.Concatenator queueLength:max 50
attr recordingmode max
attr source queueLength
attr title "Queue Length, max"
scalar DNP3NetworkTopology.Concatenator queueLength:timeavg 28.891341741779
attr recordingmode timeavg
attr source queueLength
attr title "Queue Length, timeavg"
par DNP3NetworkTopology.distAuto typename "\"basicbaseline.DNP3DA\""
par DNP3NetworkTopology.distAuto numMeters 50
par DNP3NetworkTopology.distAuto processingDelay 0.01s
attr unit s
scalar DNP3NetworkTopology.distAuto receivedEventPackets 7996
scalar DNP3NetworkTopology.distAuto eventBytesTotal 4333832
scalar DNP3NetworkTopology.distAuto ackBytesTotal 543728
scalar DNP3NetworkTopology.distAuto confirmBytesTotal 463768
scalar DNP3NetworkTopology.distAuto tcpAckBytesTotal 453734
scalar DNP3NetworkTopology.distAuto packetDelay:mean 1.3689001166452
attr recordingmode mean
attr source packetDelay
attr title "Packet Delay, mean"
scalar DNP3NetworkTopology.distAuto packetDelay:max 2.868957692308
attr recordingmode max
attr source packetDelay
attr title "Packet Delay, max"
scalar DNP3NetworkTopology.distAuto packetDelay:min 0.107582692308
attr recordingmode min
attr source packetDelay
attr title "Packet Delay, min"
par DNP3NetworkTopology typename "\"basicbaseline.simulations.DNP3NetworkTopology\""
par DNP3NetworkTopology numMeters 50

