version 3
run HeavyTraffic_100-0-20260420-13:44:53-36980
attr configname HeavyTraffic_100
attr datetime 20260420-13:44:53
attr datetimef 20260420-134453
attr experiment HeavyTraffic_100
attr inifile omnetpp.ini
attr iterationvars ""
attr iterationvarsd ""
attr iterationvarsf ""
attr measurement ""
attr network DNP3NetworkTopology
attr processid 36980
attr repetition 0
attr replication #0
attr resultdir results
attr runnumber 0
attr seedset 0
config image-path ../../samples/inet4.5/images
config description "Heavy traffic with 100 smart meters"
config *.numMeters 100
config *.distAuto.numMeters 100
config **.eventInterval 1s
config **.eventBytes 542
config network DNP3NetworkTopology
config sim-time-limit 350s
config output-scalar-file HeavyTraffic_100.sca
config output-vector-file HeavyTraffic_100.vec
config **.scalar-recording true
config **.vector-recording true
config **.result-recording-modes all
config *.distAuto.processingDelay 10ms
config **.totalPackets 500
config **.ackTimeout 2s
config **.stopGenerationTime 300s
config *.meter[*].meterId index

par DNP3NetworkTopology.meter[0].interface$o.channel typename "\"ned.DatarateChannel\""
par DNP3NetworkTopology.meter[0].interface$o.channel disabled false
attr mutable ""
par DNP3NetworkTopology.meter[0].interface$o.channel delay 0.002s
attr mutable ""
attr unit s
par DNP3NetworkTopology.meter[0].interface$o.channel datarate 65000bps
attr mutable ""
attr unit bps
par DNP3NetworkTopology.meter[0].interface$o.channel ber 0
attr mutable ""
par DNP3NetworkTopology.meter[0].interface$o.channel per 0
attr mutable ""
scalar DNP3NetworkTopology.meter[0].interface$o.channel packetsDiscarded:count 1
attr interpolationmode none
attr recordingmode count
attr source constant1(messageDiscarded)
scalar DNP3NetworkTopology.meter[0].interface$o.channel packets:count 303
attr interpolationmode none
attr recordingmode count
attr source constant1(messageSent)
scalar DNP3NetworkTopology.meter[0].interface$o.channel packetBytes:sum 114316
attr interpolationmode none
attr recordingmode sum
attr source packetBytes(messageSent)
attr unit B
scalar DNP3NetworkTopology.meter[0].interface$o.channel throughput:last 3040.2082626577
attr recordingmode last
attr source sumPerDuration(packetBits(messageSent))
attr unit bps
scalar DNP3NetworkTopology.meter[0].interface$o.channel utilization:last 0.046771324892857
attr recordingmode last
attr source timeavg(channelBusy)
par DNP3NetworkTopology.Concatenator.MeterInterface$o[0].channel typename "\"ned.DatarateChannel\""
par DNP3NetworkTopology.Concatenator.MeterInterface$o[0].channel disabled false
attr mutable ""
par DNP3NetworkTopology.Concatenator.MeterInterface$o[0].channel delay 0.002s
attr mutable ""
attr unit s
par DNP3NetworkTopology.Concatenator.MeterInterface$o[0].channel datarate 65000bps
attr mutable ""
attr unit bps
par DNP3NetworkTopology.Concatenator.MeterInterface$o[0].channel ber 0
attr mutable ""
par DNP3NetworkTopology.Concatenator.MeterInterface$o[0].channel per 0
attr mutable ""
scalar DNP3NetworkTopology.Concatenator.MeterInterface$o[0].channel packetsDiscarded:count 1
attr interpolationmode none
attr recordingmode count
attr source constant1(messageDiscarded)
scalar DNP3NetworkTopology.Concatenator.MeterInterface$o[0].channel packets:count 205
attr interpolationmode none
attr recordingmode count
attr source constant1(messageSent)
scalar DNP3NetworkTopology.Concatenator.MeterInterface$o[0].channel packetBytes:sum 12852
attr interpolationmode none
attr recordingmode sum
attr source packetBytes(messageSent)
attr unit B
scalar DNP3NetworkTopology.Concatenator.MeterInterface$o[0].channel throughput:last 341.80642810501
attr recordingmode last
attr source sumPerDuration(packetBits(messageSent))
attr unit bps
scalar DNP3NetworkTopology.Concatenator.MeterInterface$o[0].channel utilization:last 0.0052584356418845
attr recordingmode last
attr source timeavg(channelBusy)
par DNP3NetworkTopology.meter[1].interface$o.channel typename "\"ned.DatarateChannel\""
par DNP3NetworkTopology.meter[1].interface$o.channel disabled false
attr mutable ""
par DNP3NetworkTopology.meter[1].interface$o.channel delay 0.002s
attr mutable ""
attr unit s
par DNP3NetworkTopology.meter[1].interface$o.channel datarate 65000bps
attr mutable ""
attr unit bps
par DNP3NetworkTopology.meter[1].interface$o.channel ber 0
attr mutable ""
par DNP3NetworkTopology.meter[1].interface$o.channel per 0
attr mutable ""
scalar DNP3NetworkTopology.meter[1].interface$o.channel packetsDiscarded:count 1
attr interpolationmode none
attr recordingmode count
attr source constant1(messageDiscarded)
scalar DNP3NetworkTopology.meter[1].interface$o.channel packets:count 302
attr interpolationmode none
attr recordingmode count
attr source constant1(messageSent)
scalar DNP3NetworkTopology.meter[1].interface$o.channel packetBytes:sum 98286
attr interpolationmode none
attr recordingmode sum
attr source packetBytes(messageSent)
attr unit B
scalar DNP3NetworkTopology.meter[1].interface$o.channel throughput:last 2626.4835285334
attr recordingmode last
attr source sumPerDuration(packetBits(messageSent))
attr unit bps
scalar DNP3NetworkTopology.meter[1].interface$o.channel utilization:last 0.040406475407338
attr recordingmode last
attr source timeavg(channelBusy)
par DNP3NetworkTopology.Concatenator.MeterInterface$o[1].channel typename "\"ned.DatarateChannel\""
par DNP3NetworkTopology.Concatenator.MeterInterface$o[1].channel disabled false
attr mutable ""
par DNP3NetworkTopology.Concatenator.MeterInterface$o[1].channel delay 0.002s
attr mutable ""
attr unit s
par DNP3NetworkTopology.Concatenator.MeterInterface$o[1].channel datarate 65000bps
attr mutable ""
attr unit bps
par DNP3NetworkTopology.Concatenator.MeterInterface$o[1].channel ber 0
attr mutable ""
par DNP3NetworkTopology.Concatenator.MeterInterface$o[1].channel per 0
attr mutable ""
scalar DNP3NetworkTopology.Concatenator.MeterInterface$o[1].channel packetsDiscarded:count 1
attr interpolationmode none
attr recordingmode count
attr source constant1(messageDiscarded)
scalar DNP3NetworkTopology.Concatenator.MeterInterface$o[1].channel packets:count 269
attr interpolationmode none
attr recordingmode count
attr source constant1(messageSent)
scalar DNP3NetworkTopology.Concatenator.MeterInterface$o[1].channel packetBytes:sum 16884
attr interpolationmode none
attr recordingmode sum
attr source packetBytes(messageSent)
attr unit B
scalar DNP3NetworkTopology.Concatenator.MeterInterface$o[1].channel throughput:last 451.20262924019
attr recordingmode last
attr source sumPerDuration(packetBits(messageSent))
attr unit bps
scalar DNP3NetworkTopology.Concatenator.MeterInterface$o[1].channel utilization:last 0.0069414133878965
attr recordingmode last
attr source timeavg(channelBusy)
par DNP3NetworkTopology.meter[2].interface$o.channel typename "\"ned.DatarateChannel\""
par DNP3NetworkTopology.meter[2].interface$o.channel disabled false
attr mutable ""
par DNP3NetworkTopology.meter[2].interface$o.channel delay 0.002s
attr mutable ""
attr unit s
par DNP3NetworkTopology.meter[2].interface$o.channel datarate 65000bps
attr mutable ""
attr unit bps
par DNP3NetworkTopology.meter[2].interface$o.channel ber 0
attr mutable ""
par DNP3NetworkTopology.meter[2].interface$o.channel per 0
attr mutable ""
scalar DNP3NetworkTopology.meter[2].interface$o.channel packetsDiscarded:count 1
attr interpolationmode none
attr recordingmode count
attr source constant1(messageDiscarded)
scalar DNP3NetworkTopology.meter[2].interface$o.channel packets:count 301
attr interpolationmode none
attr recordingmode count
attr source constant1(messageSent)
scalar DNP3NetworkTopology.meter[2].interface$o.channel packetBytes:sum 113716
attr interpolationmode none
attr recordingmode sum
attr source packetBytes(messageSent)
attr unit B
scalar DNP3NetworkTopology.meter[2].interface$o.channel throughput:last 3023.9108684441
attr recordingmode last
attr source sumPerDuration(packetBits(messageSent))
attr unit bps
scalar DNP3NetworkTopology.meter[2].interface$o.channel utilization:last 0.046520601825255
attr recordingmode last
attr source timeavg(channelBusy)
par DNP3NetworkTopology.Concatenator.MeterInterface$o[2].channel typename "\"ned.DatarateChannel\""
par DNP3NetworkTopology.Concatenator.MeterInterface$o[2].channel disabled false
attr mutable ""
par DNP3NetworkTopology.Concatenator.MeterInterface$o[2].channel delay 0.002s
attr mutable ""
attr unit s
par DNP3NetworkTopology.Concatenator.MeterInterface$o[2].channel datarate 65000bps
attr mutable ""
attr unit bps
par DNP3NetworkTopology.Concatenator.MeterInterface$o[2].channel ber 0
attr mutable ""
par DNP3NetworkTopology.Concatenator.MeterInterface$o[2].channel per 0
attr mutable ""
scalar DNP3NetworkTopology.Concatenator.MeterInterface$o[2].channel packetsDiscarded:count 1
attr interpolationmode none
attr recordingmode count
attr source constant1(messageDiscarded)
scalar DNP3NetworkTopology.Concatenator.MeterInterface$o[2].channel packets:count 203
attr interpolationmode none
attr recordingmode count
attr source constant1(messageSent)
scalar DNP3NetworkTopology.Concatenator.MeterInterface$o[2].channel packetBytes:sum 12726
attr interpolationmode none
attr recordingmode sum
attr source packetBytes(messageSent)
attr unit B
scalar DNP3NetworkTopology.Concatenator.MeterInterface$o[2].channel throughput:last 338.41727360413
attr recordingmode last
attr source sumPerDuration(packetBits(messageSent))
attr unit bps
scalar DNP3NetworkTopology.Concatenator.MeterInterface$o[2].channel utilization:last 0.0052062960546718
attr recordingmode last
attr source timeavg(channelBusy)
par DNP3NetworkTopology.meter[3].interface$o.channel typename "\"ned.DatarateChannel\""
par DNP3NetworkTopology.meter[3].interface$o.channel disabled false
attr mutable ""
par DNP3NetworkTopology.meter[3].interface$o.channel delay 0.002s
attr mutable ""
attr unit s
par DNP3NetworkTopology.meter[3].interface$o.channel datarate 65000bps
attr mutable ""
attr unit bps
par DNP3NetworkTopology.meter[3].interface$o.channel ber 0
attr mutable ""
par DNP3NetworkTopology.meter[3].interface$o.channel per 0
attr mutable ""
scalar DNP3NetworkTopology.meter[3].interface$o.channel packetsDiscarded:count 1
attr interpolationmode none
attr recordingmode count
attr source constant1(messageDiscarded)
scalar DNP3NetworkTopology.meter[3].interface$o.channel packets:count 300
attr interpolationmode none
attr recordingmode count
attr source constant1(messageSent)
scalar DNP3NetworkTopology.meter[3].interface$o.channel packetBytes:sum 113174
attr interpolationmode none
attr recordingmode sum
attr source packetBytes(messageSent)
attr unit B
scalar DNP3NetworkTopology.meter[3].interface$o.channel throughput:last 3009.1592935781
attr recordingmode last
attr source sumPerDuration(packetBits(messageSent))
attr unit bps
scalar DNP3NetworkTopology.meter[3].interface$o.channel utilization:last 0.046293660028183
attr recordingmode last
attr source timeavg(channelBusy)
par DNP3NetworkTopology.Concatenator.MeterInterface$o[3].channel typename "\"ned.DatarateChannel\""
par DNP3NetworkTopology.Concatenator.MeterInterface$o[3].channel disabled false
attr mutable ""
par DNP3NetworkTopology.Concatenator.MeterInterface$o[3].channel delay 0.002s
attr mutable ""
attr unit s
par DNP3NetworkTopology.Concatenator.MeterInterface$o[3].channel datarate 65000bps
attr mutable ""
attr unit bps
par DNP3NetworkTopology.Concatenator.MeterInterface$o[3].channel ber 0
attr mutable ""
par DNP3NetworkTopology.Concatenator.MeterInterface$o[3].channel per 0
attr mutable ""
scalar DNP3NetworkTopology.Concatenator.MeterInterface$o[3].channel packetsDiscarded:count 1
attr interpolationmode none
attr recordingmode count
attr source constant1(messageDiscarded)
scalar DNP3NetworkTopology.Concatenator.MeterInterface$o[3].channel packets:count 203
attr interpolationmode none
attr recordingmode count
attr source constant1(messageSent)
scalar DNP3NetworkTopology.Concatenator.MeterInterface$o[3].channel packetBytes:sum 12726
attr interpolationmode none
attr recordingmode sum
attr source packetBytes(messageSent)
attr unit B
scalar DNP3NetworkTopology.Concatenator.MeterInterface$o[3].channel throughput:last 338.37917109792
attr recordingmode last
attr source sumPerDuration(packetBits(messageSent))
attr unit bps
scalar DNP3NetworkTopology.Concatenator.MeterInterface$o[3].channel utilization:last 0.0052057098900852
attr recordingmode last
attr source timeavg(channelBusy)
par DNP3NetworkTopology.meter[4].interface$o.channel typename "\"ned.DatarateChannel\""
par DNP3NetworkTopology.meter[4].interface$o.channel disabled false
attr mutable ""
par DNP3NetworkTopology.meter[4].interface$o.channel delay 0.002s
attr mutable ""
attr unit s
par DNP3NetworkTopology.meter[4].interface$o.channel datarate 65000bps
attr mutable ""
attr unit bps
par DNP3NetworkTopology.meter[4].interface$o.channel ber 0
attr mutable ""
par DNP3NetworkTopology.meter[4].interface$o.channel per 0
attr mutable ""
scalar DNP3NetworkTopology.meter[4].interface$o.channel packetsDiscarded:count 1
attr interpolationmode none
attr recordingmode count
attr source constant1(messageDiscarded)
scalar DNP3NetworkTopology.meter[4].interface$o.channel packets:count 298
attr interpolationmode none
attr recordingmode count
attr source constant1(messageSent)
scalar DNP3NetworkTopology.meter[4].interface$o.channel packetBytes:sum 112574
attr interpolationmode none
attr recordingmode sum
attr source packetBytes(messageSent)
attr unit B
scalar DNP3NetworkTopology.meter[4].interface$o.channel throughput:last 2992.8690640107
attr recordingmode last
attr source sumPerDuration(packetBits(messageSent))
attr unit bps
scalar DNP3NetworkTopology.meter[4].interface$o.channel utilization:last 0.046043047180621
attr recordingmode last
attr source timeavg(channelBusy)
par DNP3NetworkTopology.Concatenator.MeterInterface$o[4].channel typename "\"ned.DatarateChannel\""
par DNP3NetworkTopology.Concatenator.MeterInterface$o[4].channel disabled false
attr mutable ""
par DNP3NetworkTopology.Concatenator.MeterInterface$o[4].channel delay 0.002s
attr mutable ""
attr unit s
par DNP3NetworkTopology.Concatenator.MeterInterface$o[4].channel datarate 65000bps
attr mutable ""
attr unit bps
par DNP3NetworkTopology.Concatenator.MeterInterface$o[4].channel ber 0
attr mutable ""
par DNP3NetworkTopology.Concatenator.MeterInterface$o[4].channel per 0
attr mutable ""
scalar DNP3NetworkTopology.Concatenator.MeterInterface$o[4].channel packetsDiscarded:count 1
attr interpolationmode none
attr recordingmode count
attr source constant1(messageDiscarded)
scalar DNP3NetworkTopology.Concatenator.MeterInterface$o[4].channel packets:count 201
attr interpolationmode none
attr recordingmode count
attr source constant1(messageSent)
scalar DNP3NetworkTopology.Concatenator.MeterInterface$o[4].channel packetBytes:sum 12600
attr interpolationmode none
attr recordingmode sum
attr source packetBytes(messageSent)
attr unit B
scalar DNP3NetworkTopology.Concatenator.MeterInterface$o[4].channel throughput:last 334.99116551553
attr recordingmode last
attr source sumPerDuration(packetBits(messageSent))
attr unit bps
scalar DNP3NetworkTopology.Concatenator.MeterInterface$o[4].channel utilization:last 0.0051535879776967
attr recordingmode last
attr source timeavg(channelBusy)
par DNP3NetworkTopology.meter[5].interface$o.channel typename "\"ned.DatarateChannel\""
par DNP3NetworkTopology.meter[5].interface$o.channel disabled false
attr mutable ""
par DNP3NetworkTopology.meter[5].interface$o.channel delay 0.002s
attr mutable ""
attr unit s
par DNP3NetworkTopology.meter[5].interface$o.channel datarate 65000bps
attr mutable ""
attr unit bps
par DNP3NetworkTopology.meter[5].interface$o.channel ber 0
attr mutable ""
par DNP3NetworkTopology.meter[5].interface$o.channel per 0
attr mutable ""
scalar DNP3NetworkTopology.meter[5].interface$o.channel packetsDiscarded:count 1
attr interpolationmode none
attr recordingmode count
attr source constant1(messageDiscarded)
scalar DNP3NetworkTopology.meter[5].interface$o.channel packets:count 297
attr interpolationmode none
attr recordingmode count
attr source constant1(messageSent)
scalar DNP3NetworkTopology.meter[5].interface$o.channel packetBytes:sum 112032
attr interpolationmode none
attr recordingmode sum
attr source packetBytes(messageSent)
attr unit B
scalar DNP3NetworkTopology.meter[5].interface$o.channel throughput:last 2978.1243041784
attr recordingmode last
attr source sumPerDuration(packetBits(messageSent))
attr unit bps
scalar DNP3NetworkTopology.meter[5].interface$o.channel utilization:last 0.04581621022519
attr recordingmode last
attr source timeavg(channelBusy)
par DNP3NetworkTopology.Concatenator.MeterInterface$o[5].channel typename "\"ned.DatarateChannel\""
par DNP3NetworkTopology.Concatenator.MeterInterface$o[5].channel disabled false
attr mutable ""
par DNP3NetworkTopology.Concatenator.MeterInterface$o[5].channel delay 0.002s
attr mutable ""
attr unit s
par DNP3NetworkTopology.Concatenator.MeterInterface$o[5].channel datarate 65000bps
attr mutable ""
attr unit bps
par DNP3NetworkTopology.Concatenator.MeterInterface$o[5].channel ber 0
attr mutable ""
par DNP3NetworkTopology.Concatenator.MeterInterface$o[5].channel per 0
attr mutable ""
scalar DNP3NetworkTopology.Concatenator.MeterInterface$o[5].channel packetsDiscarded:count 1
attr interpolationmode none
attr recordingmode count
attr source constant1(messageDiscarded)
scalar DNP3NetworkTopology.Concatenator.MeterInterface$o[5].channel packets:count 201
attr interpolationmode none
attr recordingmode count
attr source constant1(messageSent)
scalar DNP3NetworkTopology.Concatenator.MeterInterface$o[5].channel packetBytes:sum 12600
attr interpolationmode none
attr recordingmode sum
attr source packetBytes(messageSent)
attr unit B
scalar DNP3NetworkTopology.Concatenator.MeterInterface$o[5].channel throughput:last 334.95345724707
attr recordingmode last
attr source sumPerDuration(packetBits(messageSent))
attr unit bps
scalar DNP3NetworkTopology.Concatenator.MeterInterface$o[5].channel utilization:last 0.0051530078780122
attr recordingmode last
attr source timeavg(channelBusy)
par DNP3NetworkTopology.meter[6].interface$o.channel typename "\"ned.DatarateChannel\""
par DNP3NetworkTopology.meter[6].interface$o.channel disabled false
attr mutable ""
par DNP3NetworkTopology.meter[6].interface$o.channel delay 0.002s
attr mutable ""
attr unit s
par DNP3NetworkTopology.meter[6].interface$o.channel datarate 65000bps
attr mutable ""
attr unit bps
par DNP3NetworkTopology.meter[6].interface$o.channel ber 0
attr mutable ""
par DNP3NetworkTopology.meter[6].interface$o.channel per 0
attr mutable ""
scalar DNP3NetworkTopology.meter[6].interface$o.channel packetsDiscarded:count 1
attr interpolationmode none
attr recordingmode count
attr source constant1(messageDiscarded)
scalar DNP3NetworkTopology.meter[6].interface$o.channel packets:count 301
attr interpolationmode none
attr recordingmode count
attr source constant1(messageSent)
scalar DNP3NetworkTopology.meter[6].interface$o.channel packetBytes:sum 114200
attr interpolationmode none
attr recordingmode sum
attr source packetBytes(messageSent)
attr unit B
scalar DNP3NetworkTopology.meter[6].interface$o.channel throughput:last 3035.4141447263
attr recordingmode last
attr source sumPerDuration(packetBits(messageSent))
attr unit bps
scalar DNP3NetworkTopology.meter[6].interface$o.channel utilization:last 0.04669757160621
attr recordingmode last
attr source timeavg(channelBusy)
par DNP3NetworkTopology.Concatenator.MeterInterface$o[6].channel typename "\"ned.DatarateChannel\""
par DNP3NetworkTopology.Concatenator.MeterInterface$o[6].channel disabled false
attr mutable ""
par DNP3NetworkTopology.Concatenator.MeterInterface$o[6].channel delay 0.002s
attr mutable ""
attr unit s
par DNP3NetworkTopology.Concatenator.MeterInterface$o[6].channel datarate 65000bps
attr mutable ""
attr unit bps
par DNP3NetworkTopology.Concatenator.MeterInterface$o[6].channel ber 0
attr mutable ""
par DNP3NetworkTopology.Concatenator.MeterInterface$o[6].channel per 0
attr mutable ""
scalar DNP3NetworkTopology.Concatenator.MeterInterface$o[6].channel packetsDiscarded:count 1
attr interpolationmode none
attr recordingmode count
attr source constant1(messageDiscarded)
scalar DNP3NetworkTopology.Concatenator.MeterInterface$o[6].channel packets:count 201
attr interpolationmode none
attr recordingmode count
attr source constant1(messageSent)
scalar DNP3NetworkTopology.Concatenator.MeterInterface$o[6].channel packetBytes:sum 12600
attr interpolationmode none
attr recordingmode sum
attr source packetBytes(messageSent)
attr unit B
scalar DNP3NetworkTopology.Concatenator.MeterInterface$o[6].channel throughput:last 334.91575746691
attr recordingmode last
attr source sumPerDuration(packetBits(messageSent))
attr unit bps
scalar DNP3NetworkTopology.Concatenator.MeterInterface$o[6].channel utilization:last 0.0051524279089078
attr recordingmode last
attr source timeavg(channelBusy)
par DNP3NetworkTopology.meter[7].interface$o.channel typename "\"ned.DatarateChannel\""
par DNP3NetworkTopology.meter[7].interface$o.channel disabled false
attr mutable ""
par DNP3NetworkTopology.meter[7].interface$o.channel delay 0.002s
attr mutable ""
attr unit s
par DNP3NetworkTopology.meter[7].interface$o.channel datarate 65000bps
attr mutable ""
attr unit bps
par DNP3NetworkTopology.meter[7].interface$o.channel ber 0
attr mutable ""
par DNP3NetworkTopology.meter[7].interface$o.channel per 0
attr mutable ""
scalar DNP3NetworkTopology.meter[7].interface$o.channel packetsDiscarded:count 1
attr interpolationmode none
attr recordingmode count
attr source constant1(messageDiscarded)
scalar DNP3NetworkTopology.meter[7].interface$o.channel packets:count 251
attr interpolationmode none
attr recordingmode count
attr source constant1(messageSent)
scalar DNP3NetworkTopology.meter[7].interface$o.channel packetBytes:sum 99200
attr interpolationmode none
attr recordingmode sum
attr source packetBytes(messageSent)
attr unit B
scalar DNP3NetworkTopology.meter[7].interface$o.channel throughput:last 2636.4202892407
attr recordingmode last
attr source sumPerDuration(packetBits(messageSent))
attr unit bps
scalar DNP3NetworkTopology.meter[7].interface$o.channel utilization:last 0.040559350289461
attr recordingmode last
attr source timeavg(channelBusy)
par DNP3NetworkTopology.Concatenator.MeterInterface$o[7].channel typename "\"ned.DatarateChannel\""
par DNP3NetworkTopology.Concatenator.MeterInterface$o[7].channel disabled false
attr mutable ""
par DNP3NetworkTopology.Concatenator.MeterInterface$o[7].channel delay 0.002s
attr mutable ""
attr unit s
par DNP3NetworkTopology.Concatenator.MeterInterface$o[7].channel datarate 65000bps
attr mutable ""
attr unit bps
par DNP3NetworkTopology.Concatenator.MeterInterface$o[7].channel ber 0
attr mutable ""
par DNP3NetworkTopology.Concatenator.MeterInterface$o[7].channel per 0
attr mutable ""
scalar DNP3NetworkTopology.Concatenator.MeterInterface$o[7].channel packetsDiscarded:count 1
attr interpolationmode none
attr recordingmode count
attr source constant1(messageDiscarded)
scalar DNP3NetworkTopology.Concatenator.MeterInterface$o[7].channel packets:count 151
attr interpolationmode none
attr recordingmode count
attr source constant1(messageSent)
scalar DNP3NetworkTopology.Concatenator.MeterInterface$o[7].channel packetBytes:sum 9450
attr interpolationmode none
attr recordingmode sum
attr source packetBytes(messageSent)
attr unit B
scalar DNP3NetworkTopology.Concatenator.MeterInterface$o[7].channel throughput:last 251.15854962914
attr recordingmode last
attr source sumPerDuration(packetBits(messageSent))
attr unit bps
scalar DNP3NetworkTopology.Concatenator.MeterInterface$o[7].channel utilization:last 0.0038638860527545
attr recordingmode last
attr source timeavg(channelBusy)
par DNP3NetworkTopology.meter[8].interface$o.channel typename "\"ned.DatarateChannel\""
par DNP3NetworkTopology.meter[8].interface$o.channel disabled false
attr mutable ""
par DNP3NetworkTopology.meter[8].interface$o.channel delay 0.002s
attr mutable ""
attr unit s
par DNP3NetworkTopology.meter[8].interface$o.channel datarate 65000bps
attr mutable ""
attr unit bps
par DNP3NetworkTopology.meter[8].interface$o.channel ber 0
attr mutable ""
par DNP3NetworkTopology.meter[8].interface$o.channel per 0
attr mutable ""
scalar DNP3NetworkTopology.meter[8].interface$o.channel packetsDiscarded:count 1
attr interpolationmode none
attr recordingmode count
attr source constant1(messageDiscarded)
scalar DNP3NetworkTopology.meter[8].interface$o.channel packets:count 263
attr interpolationmode none
attr recordingmode count
attr source constant1(messageSent)
scalar DNP3NetworkTopology.meter[8].interface$o.channel packetBytes:sum 98928
attr interpolationmode none
attr recordingmode sum
attr source packetBytes(messageSent)
attr unit B
scalar DNP3NetworkTopology.meter[8].interface$o.channel throughput:last 2628.8955489543
attr recordingmode last
attr source sumPerDuration(packetBits(messageSent))
attr unit bps
scalar DNP3NetworkTopology.meter[8].interface$o.channel utilization:last 0.040443587907453
attr recordingmode last
attr source timeavg(channelBusy)
par DNP3NetworkTopology.Concatenator.MeterInterface$o[8].channel typename "\"ned.DatarateChannel\""
par DNP3NetworkTopology.Concatenator.MeterInterface$o[8].channel disabled false
attr mutable ""
par DNP3NetworkTopology.Concatenator.MeterInterface$o[8].channel delay 0.002s
attr mutable ""
attr unit s
par DNP3NetworkTopology.Concatenator.MeterInterface$o[8].channel datarate 65000bps
attr mutable ""
attr unit bps
par DNP3NetworkTopology.Concatenator.MeterInterface$o[8].channel ber 0
attr mutable ""
par DNP3NetworkTopology.Concatenator.MeterInterface$o[8].channel per 0
attr mutable ""
scalar DNP3NetworkTopology.Concatenator.MeterInterface$o[8].channel packetsDiscarded:count 1
attr interpolationmode none
attr recordingmode count
attr source constant1(messageDiscarded)
scalar DNP3NetworkTopology.Concatenator.MeterInterface$o[8].channel packets:count 179
attr interpolationmode none
attr recordingmode count
attr source constant1(messageSent)
scalar DNP3NetworkTopology.Concatenator.MeterInterface$o[8].channel packetBytes:sum 11214
attr interpolationmode none
attr recordingmode sum
attr source packetBytes(messageSent)
attr unit B
scalar DNP3NetworkTopology.Concatenator.MeterInterface$o[8].channel throughput:last 298.00794119044
attr recordingmode last
attr source sumPerDuration(packetBits(messageSent))
attr unit bps
scalar DNP3NetworkTopology.Concatenator.MeterInterface$o[8].channel utilization:last 0.0045846288424138
attr recordingmode last
attr source timeavg(channelBusy)
par DNP3NetworkTopology.meter[9].interface$o.channel typename "\"ned.DatarateChannel\""
par DNP3NetworkTopology.meter[9].interface$o.channel disabled false
attr mutable ""
par DNP3NetworkTopology.meter[9].interface$o.channel delay 0.002s
attr mutable ""
attr unit s
par DNP3NetworkTopology.meter[9].interface$o.channel datarate 65000bps
attr mutable ""
attr unit bps
par DNP3NetworkTopology.meter[9].interface$o.channel ber 0
attr mutable ""
par DNP3NetworkTopology.meter[9].interface$o.channel per 0
attr mutable ""
scalar DNP3NetworkTopology.meter[9].interface$o.channel packetsDiscarded:count 1
attr interpolationmode none
attr recordingmode count
attr source constant1(messageDiscarded)
scalar DNP3NetworkTopology.meter[9].interface$o.channel packets:count 261
attr interpolationmode none
attr recordingmode count
attr source constant1(messageSent)
scalar DNP3NetworkTopology.meter[9].interface$o.channel packetBytes:sum 97844
attr interpolationmode none
attr recordingmode sum
attr source packetBytes(messageSent)
attr unit B
scalar DNP3NetworkTopology.meter[9].interface$o.channel throughput:last 2608.8322619617
attr recordingmode last
attr source sumPerDuration(packetBits(messageSent))
attr unit bps
scalar DNP3NetworkTopology.meter[9].interface$o.channel utilization:last 0.040134926072713
attr recordingmode last
attr source timeavg(channelBusy)
par DNP3NetworkTopology.Concatenator.MeterInterface$o[9].channel typename "\"ned.DatarateChannel\""
par DNP3NetworkTopology.Concatenator.MeterInterface$o[9].channel disabled false
attr mutable ""
par DNP3NetworkTopology.Concatenator.MeterInterface$o[9].channel delay 0.002s
attr mutable ""
attr unit s
par DNP3NetworkTopology.Concatenator.MeterInterface$o[9].channel datarate 65000bps
attr mutable ""
attr unit bps
par DNP3NetworkTopology.Concatenator.MeterInterface$o[9].channel ber 0
attr mutable ""
par DNP3NetworkTopology.Concatenator.MeterInterface$o[9].channel per 0
attr mutable ""
scalar DNP3NetworkTopology.Concatenator.MeterInterface$o[9].channel packetsDiscarded:count 1
attr interpolationmode none
attr recordingmode count
attr source constant1(messageDiscarded)
scalar DNP3NetworkTopology.Concatenator.MeterInterface$o[9].channel packets:count 179
attr interpolationmode none
attr recordingmode count
attr source constant1(messageSent)
scalar DNP3NetworkTopology.Concatenator.MeterInterface$o[9].channel packetBytes:sum 11214
attr interpolationmode none
attr recordingmode sum
attr source packetBytes(messageSent)
attr unit B
scalar DNP3NetworkTopology.Concatenator.MeterInterface$o[9].channel throughput:last 299.01001657891
attr recordingmode last
attr source sumPerDuration(packetBits(messageSent))
attr unit bps
scalar DNP3NetworkTopology.Concatenator.MeterInterface$o[9].channel utilization:last 0.0046000446545107
attr recordingmode last
attr source timeavg(channelBusy)
par DNP3NetworkTopology.meter[10].interface$o.channel typename "\"ned.DatarateChannel\""
par DNP3NetworkTopology.meter[10].interface$o.channel disabled false
attr mutable ""
par DNP3NetworkTopology.meter[10].interface$o.channel delay 0.002s
attr mutable ""
attr unit s
par DNP3NetworkTopology.meter[10].interface$o.channel datarate 65000bps
attr mutable ""
attr unit bps
par DNP3NetworkTopology.meter[10].interface$o.channel ber 0
attr mutable ""
par DNP3NetworkTopology.meter[10].interface$o.channel per 0
attr mutable ""
scalar DNP3NetworkTopology.meter[10].interface$o.channel packetsDiscarded:count 1
attr interpolationmode none
attr recordingmode count
attr source constant1(messageDiscarded)
scalar DNP3NetworkTopology.meter[10].interface$o.channel packets:count 257
attr interpolationmode none
attr recordingmode count
attr source constant1(messageSent)
scalar DNP3NetworkTopology.meter[10].interface$o.channel packetBytes:sum 96160
attr interpolationmode none
attr recordingmode sum
attr source packetBytes(messageSent)
attr unit B
scalar DNP3NetworkTopology.meter[10].interface$o.channel throughput:last 2569.3799798824
attr recordingmode last
attr source sumPerDuration(packetBits(messageSent))
attr unit bps
scalar DNP3NetworkTopology.meter[10].interface$o.channel utilization:last 0.039527980328691
attr recordingmode last
attr source timeavg(channelBusy)
par DNP3NetworkTopology.Concatenator.MeterInterface$o[10].channel typename "\"ned.DatarateChannel\""
par DNP3NetworkTopology.Concatenator.MeterInterface$o[10].channel disabled false
attr mutable ""
par DNP3NetworkTopology.Concatenator.MeterInterface$o[10].channel delay 0.002s
attr mutable ""
attr unit s
par DNP3NetworkTopology.Concatenator.MeterInterface$o[10].channel datarate 65000bps
attr mutable ""
attr unit bps
par DNP3NetworkTopology.Concatenator.MeterInterface$o[10].channel ber 0
attr mutable ""
par DNP3NetworkTopology.Concatenator.MeterInterface$o[10].channel per 0
attr mutable ""
scalar DNP3NetworkTopology.Concatenator.MeterInterface$o[10].channel packetsDiscarded:count 1
attr interpolationmode none
attr recordingmode count
attr source constant1(messageDiscarded)
scalar DNP3NetworkTopology.Concatenator.MeterInterface$o[10].channel packets:count 177
attr interpolationmode none
attr recordingmode count
attr source constant1(messageSent)
scalar DNP3NetworkTopology.Concatenator.MeterInterface$o[10].channel packetBytes:sum 11088
attr interpolationmode none
attr recordingmode sum
attr source packetBytes(messageSent)
attr unit B
scalar DNP3NetworkTopology.Concatenator.MeterInterface$o[10].channel throughput:last 296.27864810149
attr recordingmode last
attr source sumPerDuration(packetBits(messageSent))
attr unit bps
scalar DNP3NetworkTopology.Concatenator.MeterInterface$o[10].channel utilization:last 0.0045580243703176
attr recordingmode last
attr source timeavg(channelBusy)
par DNP3NetworkTopology.meter[11].interface$o.channel typename "\"ned.DatarateChannel\""
par DNP3NetworkTopology.meter[11].interface$o.channel disabled false
attr mutable ""
par DNP3NetworkTopology.meter[11].interface$o.channel delay 0.002s
attr mutable ""
attr unit s
par DNP3NetworkTopology.meter[11].interface$o.channel datarate 65000bps
attr mutable ""
attr unit bps
par DNP3NetworkTopology.meter[11].interface$o.channel ber 0
attr mutable ""
par DNP3NetworkTopology.meter[11].interface$o.channel per 0
attr mutable ""
scalar DNP3NetworkTopology.meter[11].interface$o.channel packetsDiscarded:count 1
attr interpolationmode none
attr recordingmode count
attr source constant1(messageDiscarded)
scalar DNP3NetworkTopology.meter[11].interface$o.channel packets:count 278
attr interpolationmode none
attr recordingmode count
attr source constant1(messageSent)
scalar DNP3NetworkTopology.meter[11].interface$o.channel packetBytes:sum 103186
attr interpolationmode none
attr recordingmode sum
attr source packetBytes(messageSent)
attr unit B
scalar DNP3NetworkTopology.meter[11].interface$o.channel throughput:last 2756.8016782273
attr recordingmode last
attr source sumPerDuration(packetBits(messageSent))
attr unit bps
scalar DNP3NetworkTopology.meter[11].interface$o.channel utilization:last 0.042411322441284
attr recordingmode last
attr source timeavg(channelBusy)
par DNP3NetworkTopology.Concatenator.MeterInterface$o[11].channel typename "\"ned.DatarateChannel\""
par DNP3NetworkTopology.Concatenator.MeterInterface$o[11].channel disabled false
attr mutable ""
par DNP3NetworkTopology.Concatenator.MeterInterface$o[11].channel delay 0.002s
attr mutable ""
attr unit s
par DNP3NetworkTopology.Concatenator.MeterInterface$o[11].channel datarate 65000bps
attr mutable ""
attr unit bps
par DNP3NetworkTopology.Concatenator.MeterInterface$o[11].channel ber 0
attr mutable ""
par DNP3NetworkTopology.Concatenator.MeterInterface$o[11].channel per 0
attr mutable ""
scalar DNP3NetworkTopology.Concatenator.MeterInterface$o[11].channel packetsDiscarded:count 1
attr interpolationmode none
attr recordingmode count
attr source constant1(messageDiscarded)
scalar DNP3NetworkTopology.Concatenator.MeterInterface$o[11].channel packets:count 195
attr interpolationmode none
attr recordingmode count
attr source constant1(messageSent)
scalar DNP3NetworkTopology.Concatenator.MeterInterface$o[11].channel packetBytes:sum 12222
attr interpolationmode none
attr recordingmode sum
attr source packetBytes(messageSent)
attr unit B
scalar DNP3NetworkTopology.Concatenator.MeterInterface$o[11].channel throughput:last 326.54292668357
attr recordingmode last
attr source sumPerDuration(packetBits(messageSent))
attr unit bps
scalar DNP3NetworkTopology.Concatenator.MeterInterface$o[11].channel utilization:last 0.0050236175685649
attr recordingmode last
attr source timeavg(channelBusy)
par DNP3NetworkTopology.meter[12].interface$o.channel typename "\"ned.DatarateChannel\""
par DNP3NetworkTopology.meter[12].interface$o.channel disabled false
attr mutable ""
par DNP3NetworkTopology.meter[12].interface$o.channel delay 0.002s
attr mutable ""
attr unit s
par DNP3NetworkTopology.meter[12].interface$o.channel datarate 65000bps
attr mutable ""
attr unit bps
par DNP3NetworkTopology.meter[12].interface$o.channel ber 0
attr mutable ""
par DNP3NetworkTopology.meter[12].interface$o.channel per 0
attr mutable ""
scalar DNP3NetworkTopology.meter[12].interface$o.channel packetsDiscarded:count 1
attr interpolationmode none
attr recordingmode count
attr source constant1(messageDiscarded)
scalar DNP3NetworkTopology.meter[12].interface$o.channel packets:count 282
attr interpolationmode none
attr recordingmode count
attr source constant1(messageSent)
scalar DNP3NetworkTopology.meter[12].interface$o.channel packetBytes:sum 104386
attr interpolationmode none
attr recordingmode sum
attr source packetBytes(messageSent)
attr unit B
scalar DNP3NetworkTopology.meter[12].interface$o.channel throughput:last 2788.5463953953
attr recordingmode last
attr source sumPerDuration(packetBits(messageSent))
attr unit bps
scalar DNP3NetworkTopology.meter[12].interface$o.channel utilization:last 0.042899691178566
attr recordingmode last
attr source timeavg(channelBusy)
par DNP3NetworkTopology.Concatenator.MeterInterface$o[12].channel typename "\"ned.DatarateChannel\""
par DNP3NetworkTopology.Concatenator.MeterInterface$o[12].channel disabled false
attr mutable ""
par DNP3NetworkTopology.Concatenator.MeterInterface$o[12].channel delay 0.002s
attr mutable ""
attr unit s
par DNP3NetworkTopology.Concatenator.MeterInterface$o[12].channel datarate 65000bps
attr mutable ""
attr unit bps
par DNP3NetworkTopology.Concatenator.MeterInterface$o[12].channel ber 0
attr mutable ""
par DNP3NetworkTopology.Concatenator.MeterInterface$o[12].channel per 0
attr mutable ""
scalar DNP3NetworkTopology.Concatenator.MeterInterface$o[12].channel packetsDiscarded:count 1
attr interpolationmode none
attr recordingmode count
attr source constant1(messageDiscarded)
scalar DNP3NetworkTopology.Concatenator.MeterInterface$o[12].channel packets:count 199
attr interpolationmode none
attr recordingmode count
attr source constant1(messageSent)
scalar DNP3NetworkTopology.Concatenator.MeterInterface$o[12].channel packetBytes:sum 12474
attr interpolationmode none
attr recordingmode sum
attr source packetBytes(messageSent)
attr unit B
scalar DNP3NetworkTopology.Concatenator.MeterInterface$o[12].channel throughput:last 333.23807048243
attr recordingmode last
attr source sumPerDuration(packetBits(messageSent))
attr unit bps
scalar DNP3NetworkTopology.Concatenator.MeterInterface$o[12].channel utilization:last 0.0051266173391253
attr recordingmode last
attr source timeavg(channelBusy)
par DNP3NetworkTopology.meter[13].interface$o.channel typename "\"ned.DatarateChannel\""
par DNP3NetworkTopology.meter[13].interface$o.channel disabled false
attr mutable ""
par DNP3NetworkTopology.meter[13].interface$o.channel delay 0.002s
attr mutable ""
attr unit s
par DNP3NetworkTopology.meter[13].interface$o.channel datarate 65000bps
attr mutable ""
attr unit bps
par DNP3NetworkTopology.meter[13].interface$o.channel ber 0
attr mutable ""
par DNP3NetworkTopology.meter[13].interface$o.channel per 0
attr mutable ""
scalar DNP3NetworkTopology.meter[13].interface$o.channel packetsDiscarded:count 1
attr interpolationmode none
attr recordingmode count
attr source constant1(messageDiscarded)
scalar DNP3NetworkTopology.meter[13].interface$o.channel packets:count 281
attr interpolationmode none
attr recordingmode count
attr source constant1(messageSent)
scalar DNP3NetworkTopology.meter[13].interface$o.channel packetBytes:sum 103844
attr interpolationmode none
attr recordingmode sum
attr source packetBytes(messageSent)
attr unit B
scalar DNP3NetworkTopology.meter[13].interface$o.channel throughput:last 2773.7537609382
attr recordingmode last
attr source sumPerDuration(packetBits(messageSent))
attr unit bps
scalar DNP3NetworkTopology.meter[13].interface$o.channel utilization:last 0.042672117726614
attr recordingmode last
attr source timeavg(channelBusy)
par DNP3NetworkTopology.Concatenator.MeterInterface$o[13].channel typename "\"ned.DatarateChannel\""
par DNP3NetworkTopology.Concatenator.MeterInterface$o[13].channel disabled false
attr mutable ""
par DNP3NetworkTopology.Concatenator.MeterInterface$o[13].channel delay 0.002s
attr mutable ""
attr unit s
par DNP3NetworkTopology.Concatenator.MeterInterface$o[13].channel datarate 65000bps
attr mutable ""
attr unit bps
par DNP3NetworkTopology.Concatenator.MeterInterface$o[13].channel ber 0
attr mutable ""
par DNP3NetworkTopology.Concatenator.MeterInterface$o[13].channel per 0
attr mutable ""
scalar DNP3NetworkTopology.Concatenator.MeterInterface$o[13].channel packetsDiscarded:count 1
attr interpolationmode none
attr recordingmode count
attr source constant1(messageDiscarded)
scalar DNP3NetworkTopology.Concatenator.MeterInterface$o[13].channel packets:count 199
attr interpolationmode none
attr recordingmode count
attr source constant1(messageSent)
scalar DNP3NetworkTopology.Concatenator.MeterInterface$o[13].channel packetBytes:sum 12474
attr interpolationmode none
attr recordingmode sum
attr source packetBytes(messageSent)
attr unit B
scalar DNP3NetworkTopology.Concatenator.MeterInterface$o[13].channel throughput:last 333.20037896042
attr recordingmode last
attr source sumPerDuration(packetBits(messageSent))
attr unit bps
scalar DNP3NetworkTopology.Concatenator.MeterInterface$o[13].channel utilization:last 0.0051260374971988
attr recordingmode last
attr source timeavg(channelBusy)
par DNP3NetworkTopology.meter[14].interface$o.channel typename "\"ned.DatarateChannel\""
par DNP3NetworkTopology.meter[14].interface$o.channel disabled false
attr mutable ""
par DNP3NetworkTopology.meter[14].interface$o.channel delay 0.002s
attr mutable ""
attr unit s
par DNP3NetworkTopology.meter[14].interface$o.channel datarate 65000bps
attr mutable ""
attr unit bps
par DNP3NetworkTopology.meter[14].interface$o.channel ber 0
attr mutable ""
par DNP3NetworkTopology.meter[14].interface$o.channel per 0
attr mutable ""
scalar DNP3NetworkTopology.meter[14].interface$o.channel packetsDiscarded:count 1
attr interpolationmode none
attr recordingmode count
attr source constant1(messageDiscarded)
scalar DNP3NetworkTopology.meter[14].interface$o.channel packets:count 285
attr interpolationmode none
attr recordingmode count
attr source constant1(messageSent)
scalar DNP3NetworkTopology.meter[14].interface$o.channel packetBytes:sum 105528
attr interpolationmode none
attr recordingmode sum
attr source packetBytes(messageSent)
attr unit B
scalar DNP3NetworkTopology.meter[14].interface$o.channel throughput:last 2797.0786922985
attr recordingmode last
attr source sumPerDuration(packetBits(messageSent))
attr unit bps
scalar DNP3NetworkTopology.meter[14].interface$o.channel utilization:last 0.043030962151329
attr recordingmode last
attr source timeavg(channelBusy)
par DNP3NetworkTopology.Concatenator.MeterInterface$o[14].channel typename "\"ned.DatarateChannel\""
par DNP3NetworkTopology.Concatenator.MeterInterface$o[14].channel disabled false
attr mutable ""
par DNP3NetworkTopology.Concatenator.MeterInterface$o[14].channel delay 0.002s
attr mutable ""
attr unit s
par DNP3NetworkTopology.Concatenator.MeterInterface$o[14].channel datarate 65000bps
attr mutable ""
attr unit bps
par DNP3NetworkTopology.Concatenator.MeterInterface$o[14].channel ber 0
attr mutable ""
par DNP3NetworkTopology.Concatenator.MeterInterface$o[14].channel per 0
attr mutable ""
scalar DNP3NetworkTopology.Concatenator.MeterInterface$o[14].channel packetsDiscarded:count 1
attr interpolationmode none
attr recordingmode count
attr source constant1(messageDiscarded)
scalar DNP3NetworkTopology.Concatenator.MeterInterface$o[14].channel packets:count 201
attr interpolationmode none
attr recordingmode count
attr source constant1(messageSent)
scalar DNP3NetworkTopology.Concatenator.MeterInterface$o[14].channel packetBytes:sum 12600
attr interpolationmode none
attr recordingmode sum
attr source packetBytes(messageSent)
attr unit B
scalar DNP3NetworkTopology.Concatenator.MeterInterface$o[14].channel throughput:last 333.98016290619
attr recordingmode last
attr source sumPerDuration(packetBits(messageSent))
attr unit bps
scalar DNP3NetworkTopology.Concatenator.MeterInterface$o[14].channel utilization:last 0.005138034828243
attr recordingmode last
attr source timeavg(channelBusy)
par DNP3NetworkTopology.meter[15].interface$o.channel typename "\"ned.DatarateChannel\""
par DNP3NetworkTopology.meter[15].interface$o.channel disabled false
attr mutable ""
par DNP3NetworkTopology.meter[15].interface$o.channel delay 0.002s
attr mutable ""
attr unit s
par DNP3NetworkTopology.meter[15].interface$o.channel datarate 65000bps
attr mutable ""
attr unit bps
par DNP3NetworkTopology.meter[15].interface$o.channel ber 0
attr mutable ""
par DNP3NetworkTopology.meter[15].interface$o.channel per 0
attr mutable ""
scalar DNP3NetworkTopology.meter[15].interface$o.channel packetsDiscarded:count 1
attr interpolationmode none
attr recordingmode count
attr source constant1(messageDiscarded)
scalar DNP3NetworkTopology.meter[15].interface$o.channel packets:count 285
attr interpolationmode none
attr recordingmode count
attr source constant1(messageSent)
scalar DNP3NetworkTopology.meter[15].interface$o.channel packetBytes:sum 105528
attr interpolationmode none
attr recordingmode sum
attr source packetBytes(messageSent)
attr unit B
scalar DNP3NetworkTopology.meter[15].interface$o.channel throughput:last 2796.7647988588
attr recordingmode last
attr source sumPerDuration(packetBits(messageSent))
attr unit bps
scalar DNP3NetworkTopology.meter[15].interface$o.channel utilization:last 0.043026133249894
attr recordingmode last
attr source timeavg(channelBusy)
par DNP3NetworkTopology.Concatenator.MeterInterface$o[15].channel typename "\"ned.DatarateChannel\""
par DNP3NetworkTopology.Concatenator.MeterInterface$o[15].channel disabled false
attr mutable ""
par DNP3NetworkTopology.Concatenator.MeterInterface$o[15].channel delay 0.002s
attr mutable ""
attr unit s
par DNP3NetworkTopology.Concatenator.MeterInterface$o[15].channel datarate 65000bps
attr mutable ""
attr unit bps
par DNP3NetworkTopology.Concatenator.MeterInterface$o[15].channel ber 0
attr mutable ""
par DNP3NetworkTopology.Concatenator.MeterInterface$o[15].channel per 0
attr mutable ""
scalar DNP3NetworkTopology.Concatenator.MeterInterface$o[15].channel packetsDiscarded:count 1
attr interpolationmode none
attr recordingmode count
attr source constant1(messageDiscarded)
scalar DNP3NetworkTopology.Concatenator.MeterInterface$o[15].channel packets:count 201
attr interpolationmode none
attr recordingmode count
attr source constant1(messageSent)
scalar DNP3NetworkTopology.Concatenator.MeterInterface$o[15].channel packetBytes:sum 12600
attr interpolationmode none
attr recordingmode sum
attr source packetBytes(messageSent)
attr unit B
scalar DNP3NetworkTopology.Concatenator.MeterInterface$o[15].channel throughput:last 333.94268188848
attr recordingmode last
attr source sumPerDuration(packetBits(messageSent))
attr unit bps
scalar DNP3NetworkTopology.Concatenator.MeterInterface$o[15].channel utilization:last 0.0051374582244756
attr recordingmode last
attr source timeavg(channelBusy)
par DNP3NetworkTopology.meter[16].interface$o.channel typename "\"ned.DatarateChannel\""
par DNP3NetworkTopology.meter[16].interface$o.channel disabled false
attr mutable ""
par DNP3NetworkTopology.meter[16].interface$o.channel delay 0.002s
attr mutable ""
attr unit s
par DNP3NetworkTopology.meter[16].interface$o.channel datarate 65000bps
attr mutable ""
attr unit bps
par DNP3NetworkTopology.meter[16].interface$o.channel ber 0
attr mutable ""
par DNP3NetworkTopology.meter[16].interface$o.channel per 0
attr mutable ""
scalar DNP3NetworkTopology.meter[16].interface$o.channel packetsDiscarded:count 1
attr interpolationmode none
attr recordingmode count
attr source constant1(messageDiscarded)
scalar DNP3NetworkTopology.meter[16].interface$o.channel packets:count 285
attr interpolationmode none
attr recordingmode count
attr source constant1(messageSent)
scalar DNP3NetworkTopology.meter[16].interface$o.channel packetBytes:sum 105528
attr interpolationmode none
attr recordingmode sum
attr source packetBytes(messageSent)
attr unit B
scalar DNP3NetworkTopology.meter[16].interface$o.channel throughput:last 2796.4509758625
attr recordingmode last
attr source sumPerDuration(packetBits(messageSent))
attr unit bps
scalar DNP3NetworkTopology.meter[16].interface$o.channel utilization:last 0.043021305432129
attr recordingmode last
attr source timeavg(channelBusy)
par DNP3NetworkTopology.Concatenator.MeterInterface$o[16].channel typename "\"ned.DatarateChannel\""
par DNP3NetworkTopology.Concatenator.MeterInterface$o[16].channel disabled false
attr mutable ""
par DNP3NetworkTopology.Concatenator.MeterInterface$o[16].channel delay 0.002s
attr mutable ""
attr unit s
par DNP3NetworkTopology.Concatenator.MeterInterface$o[16].channel datarate 65000bps
attr mutable ""
attr unit bps
par DNP3NetworkTopology.Concatenator.MeterInterface$o[16].channel ber 0
attr mutable ""
par DNP3NetworkTopology.Concatenator.MeterInterface$o[16].channel per 0
attr mutable ""
scalar DNP3NetworkTopology.Concatenator.MeterInterface$o[16].channel packetsDiscarded:count 1
attr interpolationmode none
attr recordingmode count
attr source constant1(messageDiscarded)
scalar DNP3NetworkTopology.Concatenator.MeterInterface$o[16].channel packets:count 201
attr interpolationmode none
attr recordingmode count
attr source constant1(messageSent)
scalar DNP3NetworkTopology.Concatenator.MeterInterface$o[16].channel packetBytes:sum 12600
attr interpolationmode none
attr recordingmode sum
attr source packetBytes(messageSent)
attr unit B
scalar DNP3NetworkTopology.Concatenator.MeterInterface$o[16].channel throughput:last 333.90520928246
attr recordingmode last
attr source sumPerDuration(packetBits(messageSent))
attr unit bps
scalar DNP3NetworkTopology.Concatenator.MeterInterface$o[16].channel utilization:last 0.0051368817501096
attr recordingmode last
attr source timeavg(channelBusy)
par DNP3NetworkTopology.meter[17].interface$o.channel typename "\"ned.DatarateChannel\""
par DNP3NetworkTopology.meter[17].interface$o.channel disabled false
attr mutable ""
par DNP3NetworkTopology.meter[17].interface$o.channel delay 0.002s
attr mutable ""
attr unit s
par DNP3NetworkTopology.meter[17].interface$o.channel datarate 65000bps
attr mutable ""
attr unit bps
par DNP3NetworkTopology.meter[17].interface$o.channel ber 0
attr mutable ""
par DNP3NetworkTopology.meter[17].interface$o.channel per 0
attr mutable ""
scalar DNP3NetworkTopology.meter[17].interface$o.channel packetsDiscarded:count 1
attr interpolationmode none
attr recordingmode count
attr source constant1(messageDiscarded)
scalar DNP3NetworkTopology.meter[17].interface$o.channel packets:count 285
attr interpolationmode none
attr recordingmode count
attr source constant1(messageSent)
scalar DNP3NetworkTopology.meter[17].interface$o.channel packetBytes:sum 105528
attr interpolationmode none
attr recordingmode sum
attr source packetBytes(messageSent)
attr unit B
scalar DNP3NetworkTopology.meter[17].interface$o.channel throughput:last 2796.1372232861
attr recordingmode last
attr source sumPerDuration(packetBits(messageSent))
attr unit bps
scalar DNP3NetworkTopology.meter[17].interface$o.channel utilization:last 0.043016478697668
attr recordingmode last
attr source timeavg(channelBusy)
par DNP3NetworkTopology.Concatenator.MeterInterface$o[17].channel typename "\"ned.DatarateChannel\""
par DNP3NetworkTopology.Concatenator.MeterInterface$o[17].channel disabled false
attr mutable ""
par DNP3NetworkTopology.Concatenator.MeterInterface$o[17].channel delay 0.002s
attr mutable ""
attr unit s
par DNP3NetworkTopology.Concatenator.MeterInterface$o[17].channel datarate 65000bps
attr mutable ""
attr unit bps
par DNP3NetworkTopology.Concatenator.MeterInterface$o[17].channel ber 0
attr mutable ""
par DNP3NetworkTopology.Concatenator.MeterInterface$o[17].channel per 0
attr mutable ""
scalar DNP3NetworkTopology.Concatenator.MeterInterface$o[17].channel packetsDiscarded:count 1
attr interpolationmode none
attr recordingmode count
attr source constant1(messageDiscarded)
scalar DNP3NetworkTopology.Concatenator.MeterInterface$o[17].channel packets:count 201
attr interpolationmode none
attr recordingmode count
attr source constant1(messageSent)
scalar DNP3NetworkTopology.Concatenator.MeterInterface$o[17].channel packetBytes:sum 12600
attr interpolationmode none
attr recordingmode sum
attr source packetBytes(messageSent)
attr unit B
scalar DNP3NetworkTopology.Concatenator.MeterInterface$o[17].channel throughput:last 333.8677450853
attr recordingmode last
attr source sumPerDuration(packetBits(messageSent))
attr unit bps
scalar DNP3NetworkTopology.Concatenator.MeterInterface$o[17].channel utilization:last 0.0051363054051016
attr recordingmode last
attr source timeavg(channelBusy)
par DNP3NetworkTopology.meter[18].interface$o.channel typename "\"ned.DatarateChannel\""
par DNP3NetworkTopology.meter[18].interface$o.channel disabled false
attr mutable ""
par DNP3NetworkTopology.meter[18].interface$o.channel delay 0.002s
attr mutable ""
attr unit s
par DNP3NetworkTopology.meter[18].interface$o.channel datarate 65000bps
attr mutable ""
attr unit bps
par DNP3NetworkTopology.meter[18].interface$o.channel ber 0
attr mutable ""
par DNP3NetworkTopology.meter[18].interface$o.channel per 0
attr mutable ""
scalar DNP3NetworkTopology.meter[18].interface$o.channel packetsDiscarded:count 1
attr interpolationmode none
attr recordingmode count
attr source constant1(messageDiscarded)
scalar DNP3NetworkTopology.meter[18].interface$o.channel packets:count 253
attr interpolationmode none
attr recordingmode count
attr source constant1(messageSent)
scalar DNP3NetworkTopology.meter[18].interface$o.channel packetBytes:sum 95928
attr interpolationmode none
attr recordingmode sum
attr source packetBytes(messageSent)
attr unit B
scalar DNP3NetworkTopology.meter[18].interface$o.channel throughput:last 2548.8872583734
attr recordingmode last
attr source sumPerDuration(packetBits(messageSent))
attr unit bps
scalar DNP3NetworkTopology.meter[18].interface$o.channel utilization:last 0.03921272042027
attr recordingmode last
attr source timeavg(channelBusy)
par DNP3NetworkTopology.Concatenator.MeterInterface$o[18].channel typename "\"ned.DatarateChannel\""
par DNP3NetworkTopology.Concatenator.MeterInterface$o[18].channel disabled false
attr mutable ""
par DNP3NetworkTopology.Concatenator.MeterInterface$o[18].channel delay 0.002s
attr mutable ""
attr unit s
par DNP3NetworkTopology.Concatenator.MeterInterface$o[18].channel datarate 65000bps
attr mutable ""
attr unit bps
par DNP3NetworkTopology.Concatenator.MeterInterface$o[18].channel ber 0
attr mutable ""
par DNP3NetworkTopology.Concatenator.MeterInterface$o[18].channel per 0
attr mutable ""
scalar DNP3NetworkTopology.Concatenator.MeterInterface$o[18].channel packetsDiscarded:count 1
attr interpolationmode none
attr recordingmode count
attr source constant1(messageDiscarded)
scalar DNP3NetworkTopology.Concatenator.MeterInterface$o[18].channel packets:count 169
attr interpolationmode none
attr recordingmode count
attr source constant1(messageSent)
scalar DNP3NetworkTopology.Concatenator.MeterInterface$o[18].channel packetBytes:sum 10584
attr interpolationmode none
attr recordingmode sum
attr source packetBytes(messageSent)
attr unit B
scalar DNP3NetworkTopology.Concatenator.MeterInterface$o[18].channel throughput:last 281.23427558319
attr recordingmode last
attr source sumPerDuration(packetBits(messageSent))
attr unit bps
scalar DNP3NetworkTopology.Concatenator.MeterInterface$o[18].channel utilization:last 0.0043265785790924
attr recordingmode last
attr source timeavg(channelBusy)
par DNP3NetworkTopology.meter[19].interface$o.channel typename "\"ned.DatarateChannel\""
par DNP3NetworkTopology.meter[19].interface$o.channel disabled false
attr mutable ""
par DNP3NetworkTopology.meter[19].interface$o.channel delay 0.002s
attr mutable ""
attr unit s
par DNP3NetworkTopology.meter[19].interface$o.channel datarate 65000bps
attr mutable ""
attr unit bps
par DNP3NetworkTopology.meter[19].interface$o.channel ber 0
attr mutable ""
par DNP3NetworkTopology.meter[19].interface$o.channel per 0
attr mutable ""
scalar DNP3NetworkTopology.meter[19].interface$o.channel packetsDiscarded:count 1
attr interpolationmode none
attr recordingmode count
attr source constant1(messageDiscarded)
scalar DNP3NetworkTopology.meter[19].interface$o.channel packets:count 253
attr interpolationmode none
attr recordingmode count
attr source constant1(messageSent)
scalar DNP3NetworkTopology.meter[19].interface$o.channel packetBytes:sum 95928
attr interpolationmode none
attr recordingmode sum
attr source packetBytes(messageSent)
attr unit B
scalar DNP3NetworkTopology.meter[19].interface$o.channel throughput:last 2548.600513066
attr recordingmode last
attr source sumPerDuration(packetBits(messageSent))
attr unit bps
scalar DNP3NetworkTopology.meter[19].interface$o.channel utilization:last 0.039208309163169
attr recordingmode last
attr source timeavg(channelBusy)
par DNP3NetworkTopology.Concatenator.MeterInterface$o[19].channel typename "\"ned.DatarateChannel\""
par DNP3NetworkTopology.Concatenator.MeterInterface$o[19].channel disabled false
attr mutable ""
par DNP3NetworkTopology.Concatenator.MeterInterface$o[19].channel delay 0.002s
attr mutable ""
attr unit s
par DNP3NetworkTopology.Concatenator.MeterInterface$o[19].channel datarate 65000bps
attr mutable ""
attr unit bps
par DNP3NetworkTopology.Concatenator.MeterInterface$o[19].channel ber 0
attr mutable ""
par DNP3NetworkTopology.Concatenator.MeterInterface$o[19].channel per 0
attr mutable ""
scalar DNP3NetworkTopology.Concatenator.MeterInterface$o[19].channel packetsDiscarded:count 1
attr interpolationmode none
attr recordingmode count
attr source constant1(messageDiscarded)
scalar DNP3NetworkTopology.Concatenator.MeterInterface$o[19].channel packets:count 169
attr interpolationmode none
attr recordingmode count
attr source constant1(messageSent)
scalar DNP3NetworkTopology.Concatenator.MeterInterface$o[19].channel packetBytes:sum 10584
attr interpolationmode none
attr recordingmode sum
attr source packetBytes(messageSent)
attr unit B
scalar DNP3NetworkTopology.Concatenator.MeterInterface$o[19].channel throughput:last 281.2026362645
attr recordingmode last
attr source sumPerDuration(packetBits(messageSent))
attr unit bps
scalar DNP3NetworkTopology.Concatenator.MeterInterface$o[19].channel utilization:last 0.0043260918434234
attr recordingmode last
attr source timeavg(channelBusy)
par DNP3NetworkTopology.meter[20].interface$o.channel typename "\"ned.DatarateChannel\""
par DNP3NetworkTopology.meter[20].interface$o.channel disabled false
attr mutable ""
par DNP3NetworkTopology.meter[20].interface$o.channel delay 0.002s
attr mutable ""
attr unit s
par DNP3NetworkTopology.meter[20].interface$o.channel datarate 65000bps
attr mutable ""
attr unit bps
par DNP3NetworkTopology.meter[20].interface$o.channel ber 0
attr mutable ""
par DNP3NetworkTopology.meter[20].interface$o.channel per 0
attr mutable ""
scalar DNP3NetworkTopology.meter[20].interface$o.channel packetsDiscarded:count 1
attr interpolationmode none
attr recordingmode count
attr source constant1(messageDiscarded)
scalar DNP3NetworkTopology.meter[20].interface$o.channel packets:count 253
attr interpolationmode none
attr recordingmode count
attr source constant1(messageSent)
scalar DNP3NetworkTopology.meter[20].interface$o.channel packetBytes:sum 95928
attr interpolationmode none
attr recordingmode sum
attr source packetBytes(messageSent)
attr unit B
scalar DNP3NetworkTopology.meter[20].interface$o.channel throughput:last 2548.313832268
attr recordingmode last
attr source sumPerDuration(packetBits(messageSent))
attr unit bps
scalar DNP3NetworkTopology.meter[20].interface$o.channel utilization:last 0.039203898898449
attr recordingmode last
attr source timeavg(channelBusy)
par DNP3NetworkTopology.Concatenator.MeterInterface$o[20].channel typename "\"ned.DatarateChannel\""
par DNP3NetworkTopology.Concatenator.MeterInterface$o[20].channel disabled false
attr mutable ""
par DNP3NetworkTopology.Concatenator.MeterInterface$o[20].channel delay 0.002s
attr mutable ""
attr unit s
par DNP3NetworkTopology.Concatenator.MeterInterface$o[20].channel datarate 65000bps
attr mutable ""
attr unit bps
par DNP3NetworkTopology.Concatenator.MeterInterface$o[20].channel ber 0
attr mutable ""
par DNP3NetworkTopology.Concatenator.MeterInterface$o[20].channel per 0
attr mutable ""
scalar DNP3NetworkTopology.Concatenator.MeterInterface$o[20].channel packetsDiscarded:count 1
attr interpolationmode none
attr recordingmode count
attr source constant1(messageDiscarded)
scalar DNP3NetworkTopology.Concatenator.MeterInterface$o[20].channel packets:count 169
attr interpolationmode none
attr recordingmode count
attr source constant1(messageSent)
scalar DNP3NetworkTopology.Concatenator.MeterInterface$o[20].channel packetBytes:sum 10584
attr interpolationmode none
attr recordingmode sum
attr source packetBytes(messageSent)
attr unit B
scalar DNP3NetworkTopology.Concatenator.MeterInterface$o[20].channel throughput:last 281.17100406395
attr recordingmode last
attr source sumPerDuration(packetBits(messageSent))
attr unit bps
scalar DNP3NetworkTopology.Concatenator.MeterInterface$o[20].channel utilization:last 0.0043256052172566
attr recordingmode last
attr source timeavg(channelBusy)
par DNP3NetworkTopology.meter[21].interface$o.channel typename "\"ned.DatarateChannel\""
par DNP3NetworkTopology.meter[21].interface$o.channel disabled false
attr mutable ""
par DNP3NetworkTopology.meter[21].interface$o.channel delay 0.002s
attr mutable ""
attr unit s
par DNP3NetworkTopology.meter[21].interface$o.channel datarate 65000bps
attr mutable ""
attr unit bps
par DNP3NetworkTopology.meter[21].interface$o.channel ber 0
attr mutable ""
par DNP3NetworkTopology.meter[21].interface$o.channel per 0
attr mutable ""
scalar DNP3NetworkTopology.meter[21].interface$o.channel packetsDiscarded:count 1
attr interpolationmode none
attr recordingmode count
attr source constant1(messageDiscarded)
scalar DNP3NetworkTopology.meter[21].interface$o.channel packets:count 283
attr interpolationmode none
attr recordingmode count
attr source constant1(messageSent)
scalar DNP3NetworkTopology.meter[21].interface$o.channel packetBytes:sum 104928
attr interpolationmode none
attr recordingmode sum
attr source packetBytes(messageSent)
attr unit B
scalar DNP3NetworkTopology.meter[21].interface$o.channel throughput:last 2802.3912813819
attr recordingmode last
attr source sumPerDuration(packetBits(messageSent))
attr unit bps
scalar DNP3NetworkTopology.meter[21].interface$o.channel utilization:last 0.043112684579847
attr recordingmode last
attr source timeavg(channelBusy)
par DNP3NetworkTopology.Concatenator.MeterInterface$o[21].channel typename "\"ned.DatarateChannel\""
par DNP3NetworkTopology.Concatenator.MeterInterface$o[21].channel disabled false
attr mutable ""
par DNP3NetworkTopology.Concatenator.MeterInterface$o[21].channel delay 0.002s
attr mutable ""
attr unit s
par DNP3NetworkTopology.Concatenator.MeterInterface$o[21].channel datarate 65000bps
attr mutable ""
attr unit bps
par DNP3NetworkTopology.Concatenator.MeterInterface$o[21].channel ber 0
attr mutable ""
par DNP3NetworkTopology.Concatenator.MeterInterface$o[21].channel per 0
attr mutable ""
scalar DNP3NetworkTopology.Concatenator.MeterInterface$o[21].channel packetsDiscarded:count 1
attr interpolationmode none
attr recordingmode count
attr source constant1(messageDiscarded)
scalar DNP3NetworkTopology.Concatenator.MeterInterface$o[21].channel packets:count 199
attr interpolationmode none
attr recordingmode count
attr source constant1(messageSent)
scalar DNP3NetworkTopology.Concatenator.MeterInterface$o[21].channel packetBytes:sum 12474
attr interpolationmode none
attr recordingmode sum
attr source packetBytes(messageSent)
attr unit B
scalar DNP3NetworkTopology.Concatenator.MeterInterface$o[21].channel throughput:last 333.16269596378
attr recordingmode last
attr source sumPerDuration(packetBits(messageSent))
attr unit bps
scalar DNP3NetworkTopology.Concatenator.MeterInterface$o[21].channel utilization:last 0.0051254577864225
attr recordingmode last
attr source timeavg(channelBusy)
par DNP3NetworkTopology.meter[22].interface$o.channel typename "\"ned.DatarateChannel\""
par DNP3NetworkTopology.meter[22].interface$o.channel disabled false
attr mutable ""
par DNP3NetworkTopology.meter[22].interface$o.channel delay 0.002s
attr mutable ""
attr unit s
par DNP3NetworkTopology.meter[22].interface$o.channel datarate 65000bps
attr mutable ""
attr unit bps
par DNP3NetworkTopology.meter[22].interface$o.channel ber 0
attr mutable ""
par DNP3NetworkTopology.meter[22].interface$o.channel per 0
attr mutable ""
scalar DNP3NetworkTopology.meter[22].interface$o.channel packetsDiscarded:count 1
attr interpolationmode none
attr recordingmode count
attr source constant1(messageDiscarded)
scalar DNP3NetworkTopology.meter[22].interface$o.channel packets:count 254
attr interpolationmode none
attr recordingmode count
attr source constant1(messageSent)
scalar DNP3NetworkTopology.meter[22].interface$o.channel packetBytes:sum 96470
attr interpolationmode none
attr recordingmode sum
attr source packetBytes(messageSent)
attr unit B
scalar DNP3NetworkTopology.meter[22].interface$o.channel throughput:last 2571.0991215029
attr recordingmode last
attr source sumPerDuration(packetBits(messageSent))
attr unit bps
scalar DNP3NetworkTopology.meter[22].interface$o.channel utilization:last 0.039554430432211
attr recordingmode last
attr source timeavg(channelBusy)
par DNP3NetworkTopology.Concatenator.MeterInterface$o[22].channel typename "\"ned.DatarateChannel\""
par DNP3NetworkTopology.Concatenator.MeterInterface$o[22].channel disabled false
attr mutable ""
par DNP3NetworkTopology.Concatenator.MeterInterface$o[22].channel delay 0.002s
attr mutable ""
attr unit s
par DNP3NetworkTopology.Concatenator.MeterInterface$o[22].channel datarate 65000bps
attr mutable ""
attr unit bps
par DNP3NetworkTopology.Concatenator.MeterInterface$o[22].channel ber 0
attr mutable ""
par DNP3NetworkTopology.Concatenator.MeterInterface$o[22].channel per 0
attr mutable ""
scalar DNP3NetworkTopology.Concatenator.MeterInterface$o[22].channel packetsDiscarded:count 1
attr interpolationmode none
attr recordingmode count
attr source constant1(messageDiscarded)
scalar DNP3NetworkTopology.Concatenator.MeterInterface$o[22].channel packets:count 169
attr interpolationmode none
attr recordingmode count
attr source constant1(messageSent)
scalar DNP3NetworkTopology.Concatenator.MeterInterface$o[22].channel packetBytes:sum 10584
attr interpolationmode none
attr recordingmode sum
attr source packetBytes(messageSent)
attr unit B
scalar DNP3NetworkTopology.Concatenator.MeterInterface$o[22].channel throughput:last 282.09123665476
attr recordingmode last
attr source sumPerDuration(packetBits(messageSent))
attr unit bps
scalar DNP3NetworkTopology.Concatenator.MeterInterface$o[22].channel utilization:last 0.0043397619694591
attr recordingmode last
attr source timeavg(channelBusy)
par DNP3NetworkTopology.meter[23].interface$o.channel typename "\"ned.DatarateChannel\""
par DNP3NetworkTopology.meter[23].interface$o.channel disabled false
attr mutable ""
par DNP3NetworkTopology.meter[23].interface$o.channel delay 0.002s
attr mutable ""
attr unit s
par DNP3NetworkTopology.meter[23].interface$o.channel datarate 65000bps
attr mutable ""
attr unit bps
par DNP3NetworkTopology.meter[23].interface$o.channel ber 0
attr mutable ""
par DNP3NetworkTopology.meter[23].interface$o.channel per 0
attr mutable ""
scalar DNP3NetworkTopology.meter[23].interface$o.channel packetsDiscarded:count 1
attr interpolationmode none
attr recordingmode count
attr source constant1(messageDiscarded)
scalar DNP3NetworkTopology.meter[23].interface$o.channel packets:count 253
attr interpolationmode none
attr recordingmode count
attr source constant1(messageSent)
scalar DNP3NetworkTopology.meter[23].interface$o.channel packetBytes:sum 96412
attr interpolationmode none
attr recordingmode sum
attr source packetBytes(messageSent)
attr unit B
scalar DNP3NetworkTopology.meter[23].interface$o.channel throughput:last 2560.8831617975
attr recordingmode last
attr source sumPerDuration(packetBits(messageSent))
attr unit bps
scalar DNP3NetworkTopology.meter[23].interface$o.channel utilization:last 0.039397268720297
attr recordingmode last
attr source timeavg(channelBusy)
par DNP3NetworkTopology.Concatenator.MeterInterface$o[23].channel typename "\"ned.DatarateChannel\""
par DNP3NetworkTopology.Concatenator.MeterInterface$o[23].channel disabled false
attr mutable ""
par DNP3NetworkTopology.Concatenator.MeterInterface$o[23].channel delay 0.002s
attr mutable ""
attr unit s
par DNP3NetworkTopology.Concatenator.MeterInterface$o[23].channel datarate 65000bps
attr mutable ""
attr unit bps
par DNP3NetworkTopology.Concatenator.MeterInterface$o[23].channel ber 0
attr mutable ""
par DNP3NetworkTopology.Concatenator.MeterInterface$o[23].channel per 0
attr mutable ""
scalar DNP3NetworkTopology.Concatenator.MeterInterface$o[23].channel packetsDiscarded:count 1
attr interpolationmode none
attr recordingmode count
attr source constant1(messageDiscarded)
scalar DNP3NetworkTopology.Concatenator.MeterInterface$o[23].channel packets:count 167
attr interpolationmode none
attr recordingmode count
attr source constant1(messageSent)
scalar DNP3NetworkTopology.Concatenator.MeterInterface$o[23].channel packetBytes:sum 10458
attr interpolationmode none
attr recordingmode sum
attr source packetBytes(messageSent)
attr unit B
scalar DNP3NetworkTopology.Concatenator.MeterInterface$o[23].channel throughput:last 277.79248161036
attr recordingmode last
attr source sumPerDuration(packetBits(messageSent))
attr unit bps
scalar DNP3NetworkTopology.Concatenator.MeterInterface$o[23].channel utilization:last 0.004273629192215
attr recordingmode last
attr source timeavg(channelBusy)
par DNP3NetworkTopology.meter[24].interface$o.channel typename "\"ned.DatarateChannel\""
par DNP3NetworkTopology.meter[24].interface$o.channel disabled false
attr mutable ""
par DNP3NetworkTopology.meter[24].interface$o.channel delay 0.002s
attr mutable ""
attr unit s
par DNP3NetworkTopology.meter[24].interface$o.channel datarate 65000bps
attr mutable ""
attr unit bps
par DNP3NetworkTopology.meter[24].interface$o.channel ber 0
attr mutable ""
par DNP3NetworkTopology.meter[24].interface$o.channel per 0
attr mutable ""
scalar DNP3NetworkTopology.meter[24].interface$o.channel packetsDiscarded:count 1
attr interpolationmode none
attr recordingmode count
attr source constant1(messageDiscarded)
scalar DNP3NetworkTopology.meter[24].interface$o.channel packets:count 253
attr interpolationmode none
attr recordingmode count
attr source constant1(messageSent)
scalar DNP3NetworkTopology.meter[24].interface$o.channel packetBytes:sum 96412
attr interpolationmode none
attr recordingmode sum
attr source packetBytes(messageSent)
attr unit B
scalar DNP3NetworkTopology.meter[24].interface$o.channel throughput:last 2569.2633662031
attr recordingmode last
attr source sumPerDuration(packetBits(messageSent))
attr unit bps
scalar DNP3NetworkTopology.meter[24].interface$o.channel utilization:last 0.039526188820686
attr recordingmode last
attr source timeavg(channelBusy)
par DNP3NetworkTopology.Concatenator.MeterInterface$o[24].channel typename "\"ned.DatarateChannel\""
par DNP3NetworkTopology.Concatenator.MeterInterface$o[24].channel disabled false
attr mutable ""
par DNP3NetworkTopology.Concatenator.MeterInterface$o[24].channel delay 0.002s
attr mutable ""
attr unit s
par DNP3NetworkTopology.Concatenator.MeterInterface$o[24].channel datarate 65000bps
attr mutable ""
attr unit bps
par DNP3NetworkTopology.Concatenator.MeterInterface$o[24].channel ber 0
attr mutable ""
par DNP3NetworkTopology.Concatenator.MeterInterface$o[24].channel per 0
attr mutable ""
scalar DNP3NetworkTopology.Concatenator.MeterInterface$o[24].channel packetsDiscarded:count 1
attr interpolationmode none
attr recordingmode count
attr source constant1(messageDiscarded)
scalar DNP3NetworkTopology.Concatenator.MeterInterface$o[24].channel packets:count 167
attr interpolationmode none
attr recordingmode count
attr source constant1(messageSent)
scalar DNP3NetworkTopology.Concatenator.MeterInterface$o[24].channel packetBytes:sum 10458
attr interpolationmode none
attr recordingmode sum
attr source packetBytes(messageSent)
attr unit B
scalar DNP3NetworkTopology.Concatenator.MeterInterface$o[24].channel throughput:last 278.70155418374
attr recordingmode last
attr source sumPerDuration(packetBits(messageSent))
attr unit bps
scalar DNP3NetworkTopology.Concatenator.MeterInterface$o[24].channel utilization:last 0.0042876142600695
attr recordingmode last
attr source timeavg(channelBusy)
par DNP3NetworkTopology.meter[25].interface$o.channel typename "\"ned.DatarateChannel\""
par DNP3NetworkTopology.meter[25].interface$o.channel disabled false
attr mutable ""
par DNP3NetworkTopology.meter[25].interface$o.channel delay 0.002s
attr mutable ""
attr unit s
par DNP3NetworkTopology.meter[25].interface$o.channel datarate 65000bps
attr mutable ""
attr unit bps
par DNP3NetworkTopology.meter[25].interface$o.channel ber 0
attr mutable ""
par DNP3NetworkTopology.meter[25].interface$o.channel per 0
attr mutable ""
scalar DNP3NetworkTopology.meter[25].interface$o.channel packetsDiscarded:count 1
attr interpolationmode none
attr recordingmode count
attr source constant1(messageDiscarded)
scalar DNP3NetworkTopology.meter[25].interface$o.channel packets:count 253
attr interpolationmode none
attr recordingmode count
attr source constant1(messageSent)
scalar DNP3NetworkTopology.meter[25].interface$o.channel packetBytes:sum 96412
attr interpolationmode none
attr recordingmode sum
attr source packetBytes(messageSent)
attr unit B
scalar DNP3NetworkTopology.meter[25].interface$o.channel throughput:last 2568.9734807178
attr recordingmode last
attr source sumPerDuration(packetBits(messageSent))
attr unit bps
scalar DNP3NetworkTopology.meter[25].interface$o.channel utilization:last 0.039521729256068
attr recordingmode last
attr source timeavg(channelBusy)
par DNP3NetworkTopology.Concatenator.MeterInterface$o[25].channel typename "\"ned.DatarateChannel\""
par DNP3NetworkTopology.Concatenator.MeterInterface$o[25].channel disabled false
attr mutable ""
par DNP3NetworkTopology.Concatenator.MeterInterface$o[25].channel delay 0.002s
attr mutable ""
attr unit s
par DNP3NetworkTopology.Concatenator.MeterInterface$o[25].channel datarate 65000bps
attr mutable ""
attr unit bps
par DNP3NetworkTopology.Concatenator.MeterInterface$o[25].channel ber 0
attr mutable ""
par DNP3NetworkTopology.Concatenator.MeterInterface$o[25].channel per 0
attr mutable ""
scalar DNP3NetworkTopology.Concatenator.MeterInterface$o[25].channel packetsDiscarded:count 1
attr interpolationmode none
attr recordingmode count
attr source constant1(messageDiscarded)
scalar DNP3NetworkTopology.Concatenator.MeterInterface$o[25].channel packets:count 167
attr interpolationmode none
attr recordingmode count
attr source constant1(messageSent)
scalar DNP3NetworkTopology.Concatenator.MeterInterface$o[25].channel packetBytes:sum 10458
attr interpolationmode none
attr recordingmode sum
attr source packetBytes(messageSent)
attr unit B
scalar DNP3NetworkTopology.Concatenator.MeterInterface$o[25].channel throughput:last 278.67010781841
attr recordingmode last
attr source sumPerDuration(packetBits(messageSent))
attr unit bps
scalar DNP3NetworkTopology.Concatenator.MeterInterface$o[25].channel utilization:last 0.0042871304928403
attr recordingmode last
attr source timeavg(channelBusy)
par DNP3NetworkTopology.meter[26].interface$o.channel typename "\"ned.DatarateChannel\""
par DNP3NetworkTopology.meter[26].interface$o.channel disabled false
attr mutable ""
par DNP3NetworkTopology.meter[26].interface$o.channel delay 0.002s
attr mutable ""
attr unit s
par DNP3NetworkTopology.meter[26].interface$o.channel datarate 65000bps
attr mutable ""
attr unit bps
par DNP3NetworkTopology.meter[26].interface$o.channel ber 0
attr mutable ""
par DNP3NetworkTopology.meter[26].interface$o.channel per 0
attr mutable ""
scalar DNP3NetworkTopology.meter[26].interface$o.channel packetsDiscarded:count 1
attr interpolationmode none
attr recordingmode count
attr source constant1(messageDiscarded)
scalar DNP3NetworkTopology.meter[26].interface$o.channel packets:count 253
attr interpolationmode none
attr recordingmode count
attr source constant1(messageSent)
scalar DNP3NetworkTopology.meter[26].interface$o.channel packetBytes:sum 95928
attr interpolationmode none
attr recordingmode sum
attr source packetBytes(messageSent)
attr unit B
scalar DNP3NetworkTopology.meter[26].interface$o.channel throughput:last 2547.7406641132
attr recordingmode last
attr source sumPerDuration(packetBits(messageSent))
attr unit bps
scalar DNP3NetworkTopology.meter[26].interface$o.channel utilization:last 0.039195081344818
attr recordingmode last
attr source timeavg(channelBusy)
par DNP3NetworkTopology.Concatenator.MeterInterface$o[26].channel typename "\"ned.DatarateChannel\""
par DNP3NetworkTopology.Concatenator.MeterInterface$o[26].channel disabled false
attr mutable ""
par DNP3NetworkTopology.Concatenator.MeterInterface$o[26].channel delay 0.002s
attr mutable ""
attr unit s
par DNP3NetworkTopology.Concatenator.MeterInterface$o[26].channel datarate 65000bps
attr mutable ""
attr unit bps
par DNP3NetworkTopology.Concatenator.MeterInterface$o[26].channel ber 0
attr mutable ""
par DNP3NetworkTopology.Concatenator.MeterInterface$o[26].channel per 0
attr mutable ""
scalar DNP3NetworkTopology.Concatenator.MeterInterface$o[26].channel packetsDiscarded:count 1
attr interpolationmode none
attr recordingmode count
attr source constant1(messageDiscarded)
scalar DNP3NetworkTopology.Concatenator.MeterInterface$o[26].channel packets:count 169
attr interpolationmode none
attr recordingmode count
attr source constant1(messageSent)
scalar DNP3NetworkTopology.Concatenator.MeterInterface$o[26].channel packetBytes:sum 10584
attr interpolationmode none
attr recordingmode sum
attr source packetBytes(messageSent)
attr unit B
scalar DNP3NetworkTopology.Concatenator.MeterInterface$o[26].channel throughput:last 281.10776100771
attr recordingmode last
attr source sumPerDuration(packetBits(messageSent))
attr unit bps
scalar DNP3NetworkTopology.Concatenator.MeterInterface$o[26].channel utilization:last 0.0043246322932817
attr recordingmode last
attr source timeavg(channelBusy)
par DNP3NetworkTopology.meter[27].interface$o.channel typename "\"ned.DatarateChannel\""
par DNP3NetworkTopology.meter[27].interface$o.channel disabled false
attr mutable ""
par DNP3NetworkTopology.meter[27].interface$o.channel delay 0.002s
attr mutable ""
attr unit s
par DNP3NetworkTopology.meter[27].interface$o.channel datarate 65000bps
attr mutable ""
attr unit bps
par DNP3NetworkTopology.meter[27].interface$o.channel ber 0
attr mutable ""
par DNP3NetworkTopology.meter[27].interface$o.channel per 0
attr mutable ""
scalar DNP3NetworkTopology.meter[27].interface$o.channel packetsDiscarded:count 1
attr interpolationmode none
attr recordingmode count
attr source constant1(messageDiscarded)
scalar DNP3NetworkTopology.meter[27].interface$o.channel packets:count 253
attr interpolationmode none
attr recordingmode count
attr source constant1(messageSent)
scalar DNP3NetworkTopology.meter[27].interface$o.channel packetBytes:sum 95928
attr interpolationmode none
attr recordingmode sum
attr source packetBytes(messageSent)
attr unit B
scalar DNP3NetworkTopology.meter[27].interface$o.channel throughput:last 2547.4541767129
attr recordingmode last
attr source sumPerDuration(packetBits(messageSent))
attr unit bps
scalar DNP3NetworkTopology.meter[27].interface$o.channel utilization:last 0.039190674055237
attr recordingmode last
attr source timeavg(channelBusy)
par DNP3NetworkTopology.Concatenator.MeterInterface$o[27].channel typename "\"ned.DatarateChannel\""
par DNP3NetworkTopology.Concatenator.MeterInterface$o[27].channel disabled false
attr mutable ""
par DNP3NetworkTopology.Concatenator.MeterInterface$o[27].channel delay 0.002s
attr mutable ""
attr unit s
[...]
attr unit s
scalar DNP3NetworkTopology.meter[65] retransmissions 106
scalar DNP3NetworkTopology.meter[65] generatedEventPackets 70
par DNP3NetworkTopology.meter[66] typename "\"basicbaseline.DNP3SmartMeter\""
par DNP3NetworkTopology.meter[66] meterId 66
par DNP3NetworkTopology.meter[66] totalPackets 500
par DNP3NetworkTopology.meter[66] eventBytes 542
par DNP3NetworkTopology.meter[66] ackTimeout 2s
attr unit s
par DNP3NetworkTopology.meter[66] eventInterval 1s
attr unit s
par DNP3NetworkTopology.meter[66] stopGenerationTime 300s
attr unit s
scalar DNP3NetworkTopology.meter[66] retransmissions 102
scalar DNP3NetworkTopology.meter[66] generatedEventPackets 69
par DNP3NetworkTopology.meter[67] typename "\"basicbaseline.DNP3SmartMeter\""
par DNP3NetworkTopology.meter[67] meterId 67
par DNP3NetworkTopology.meter[67] totalPackets 500
par DNP3NetworkTopology.meter[67] eventBytes 542
par DNP3NetworkTopology.meter[67] ackTimeout 2s
attr unit s
par DNP3NetworkTopology.meter[67] eventInterval 1s
attr unit s
par DNP3NetworkTopology.meter[67] stopGenerationTime 300s
attr unit s
scalar DNP3NetworkTopology.meter[67] retransmissions 103
scalar DNP3NetworkTopology.meter[67] generatedEventPackets 69
par DNP3NetworkTopology.meter[68] typename "\"basicbaseline.DNP3SmartMeter\""
par DNP3NetworkTopology.meter[68] meterId 68
par DNP3NetworkTopology.meter[68] totalPackets 500
par DNP3NetworkTopology.meter[68] eventBytes 542
par DNP3NetworkTopology.meter[68] ackTimeout 2s
attr unit s
par DNP3NetworkTopology.meter[68] eventInterval 1s
attr unit s
par DNP3NetworkTopology.meter[68] stopGenerationTime 300s
attr unit s
scalar DNP3NetworkTopology.meter[68] retransmissions 118
scalar DNP3NetworkTopology.meter[68] generatedEventPackets 67
par DNP3NetworkTopology.meter[69] typename "\"basicbaseline.DNP3SmartMeter\""
par DNP3NetworkTopology.meter[69] meterId 69
par DNP3NetworkTopology.meter[69] totalPackets 500
par DNP3NetworkTopology.meter[69] eventBytes 542
par DNP3NetworkTopology.meter[69] ackTimeout 2s
attr unit s
par DNP3NetworkTopology.meter[69] eventInterval 1s
attr unit s
par DNP3NetworkTopology.meter[69] stopGenerationTime 300s
attr unit s
scalar DNP3NetworkTopology.meter[69] retransmissions 118
scalar DNP3NetworkTopology.meter[69] generatedEventPackets 67
par DNP3NetworkTopology.meter[70] typename "\"basicbaseline.DNP3SmartMeter\""
par DNP3NetworkTopology.meter[70] meterId 70
par DNP3NetworkTopology.meter[70] totalPackets 500
par DNP3NetworkTopology.meter[70] eventBytes 542
par DNP3NetworkTopology.meter[70] ackTimeout 2s
attr unit s
par DNP3NetworkTopology.meter[70] eventInterval 1s
attr unit s
par DNP3NetworkTopology.meter[70] stopGenerationTime 300s
attr unit s
scalar DNP3NetworkTopology.meter[70] retransmissions 116
scalar DNP3NetworkTopology.meter[70] generatedEventPackets 68
par DNP3NetworkTopology.meter[71] typename "\"basicbaseline.DNP3SmartMeter\""
par DNP3NetworkTopology.meter[71] meterId 71
par DNP3NetworkTopology.meter[71] totalPackets 500
par DNP3NetworkTopology.meter[71] eventBytes 542
par DNP3NetworkTopology.meter[71] ackTimeout 2s
attr unit s
par DNP3NetworkTopology.meter[71] eventInterval 1s
attr unit s
par DNP3NetworkTopology.meter[71] stopGenerationTime 300s
attr unit s
scalar DNP3NetworkTopology.meter[71] retransmissions 114
scalar DNP3NetworkTopology.meter[71] generatedEventPackets 69
par DNP3NetworkTopology.meter[72] typename "\"basicbaseline.DNP3SmartMeter\""
par DNP3NetworkTopology.meter[72] meterId 72
par DNP3NetworkTopology.meter[72] totalPackets 500
par DNP3NetworkTopology.meter[72] eventBytes 542
par DNP3NetworkTopology.meter[72] ackTimeout 2s
attr unit s
par DNP3NetworkTopology.meter[72] eventInterval 1s
attr unit s
par DNP3NetworkTopology.meter[72] stopGenerationTime 300s
attr unit s
scalar DNP3NetworkTopology.meter[72] retransmissions 115
scalar DNP3NetworkTopology.meter[72] generatedEventPackets 69
par DNP3NetworkTopology.meter[73] typename "\"basicbaseline.DNP3SmartMeter\""
par DNP3NetworkTopology.meter[73] meterId 73
par DNP3NetworkTopology.meter[73] totalPackets 500
par DNP3NetworkTopology.meter[73] eventBytes 542
par DNP3NetworkTopology.meter[73] ackTimeout 2s
attr unit s
par DNP3NetworkTopology.meter[73] eventInterval 1s
attr unit s
par DNP3NetworkTopology.meter[73] stopGenerationTime 300s
attr unit s
scalar DNP3NetworkTopology.meter[73] retransmissions 115
scalar DNP3NetworkTopology.meter[73] generatedEventPackets 69
par DNP3NetworkTopology.meter[74] typename "\"basicbaseline.DNP3SmartMeter\""
par DNP3NetworkTopology.meter[74] meterId 74
par DNP3NetworkTopology.meter[74] totalPackets 500
par DNP3NetworkTopology.meter[74] eventBytes 542
par DNP3NetworkTopology.meter[74] ackTimeout 2s
attr unit s
par DNP3NetworkTopology.meter[74] eventInterval 1s
attr unit s
par DNP3NetworkTopology.meter[74] stopGenerationTime 300s
attr unit s
scalar DNP3NetworkTopology.meter[74] retransmissions 117
scalar DNP3NetworkTopology.meter[74] generatedEventPackets 67
par DNP3NetworkTopology.meter[75] typename "\"basicbaseline.DNP3SmartMeter\""
par DNP3NetworkTopology.meter[75] meterId 75
par DNP3NetworkTopology.meter[75] totalPackets 500
par DNP3NetworkTopology.meter[75] eventBytes 542
par DNP3NetworkTopology.meter[75] ackTimeout 2s
attr unit s
par DNP3NetworkTopology.meter[75] eventInterval 1s
attr unit s
par DNP3NetworkTopology.meter[75] stopGenerationTime 300s
attr unit s
scalar DNP3NetworkTopology.meter[75] retransmissions 117
scalar DNP3NetworkTopology.meter[75] generatedEventPackets 67
par DNP3NetworkTopology.meter[76] typename "\"basicbaseline.DNP3SmartMeter\""
par DNP3NetworkTopology.meter[76] meterId 76
par DNP3NetworkTopology.meter[76] totalPackets 500
par DNP3NetworkTopology.meter[76] eventBytes 542
par DNP3NetworkTopology.meter[76] ackTimeout 2s
attr unit s
par DNP3NetworkTopology.meter[76] eventInterval 1s
attr unit s
par DNP3NetworkTopology.meter[76] stopGenerationTime 300s
attr unit s
scalar DNP3NetworkTopology.meter[76] retransmissions 117
scalar DNP3NetworkTopology.meter[76] generatedEventPackets 67
par DNP3NetworkTopology.meter[77] typename "\"basicbaseline.DNP3SmartMeter\""
par DNP3NetworkTopology.meter[77] meterId 77
par DNP3NetworkTopology.meter[77] totalPackets 500
par DNP3NetworkTopology.meter[77] eventBytes 542
par DNP3NetworkTopology.meter[77] ackTimeout 2s
attr unit s
par DNP3NetworkTopology.meter[77] eventInterval 1s
attr unit s
par DNP3NetworkTopology.meter[77] stopGenerationTime 300s
attr unit s
scalar DNP3NetworkTopology.meter[77] retransmissions 113
scalar DNP3NetworkTopology.meter[77] generatedEventPackets 68
par DNP3NetworkTopology.meter[78] typename "\"basicbaseline.DNP3SmartMeter\""
par DNP3NetworkTopology.meter[78] meterId 78
par DNP3NetworkTopology.meter[78] totalPackets 500
par DNP3NetworkTopology.meter[78] eventBytes 542
par DNP3NetworkTopology.meter[78] ackTimeout 2s
attr unit s
par DNP3NetworkTopology.meter[78] eventInterval 1s
attr unit s
par DNP3NetworkTopology.meter[78] stopGenerationTime 300s
attr unit s
scalar DNP3NetworkTopology.meter[78] retransmissions 113
scalar DNP3NetworkTopology.meter[78] generatedEventPackets 68
par DNP3NetworkTopology.meter[79] typename "\"basicbaseline.DNP3SmartMeter\""
par DNP3NetworkTopology.meter[79] meterId 79
par DNP3NetworkTopology.meter[79] totalPackets 500
par DNP3NetworkTopology.meter[79] eventBytes 542
par DNP3NetworkTopology.meter[79] ackTimeout 2s
attr unit s
par DNP3NetworkTopology.meter[79] eventInterval 1s
attr unit s
par DNP3NetworkTopology.meter[79] stopGenerationTime 300s
attr unit s
scalar DNP3NetworkTopology.meter[79] retransmissions 113
scalar DNP3NetworkTopology.meter[79] generatedEventPackets 68
par DNP3NetworkTopology.meter[80] typename "\"basicbaseline.DNP3SmartMeter\""
par DNP3NetworkTopology.meter[80] meterId 80
par DNP3NetworkTopology.meter[80] totalPackets 500
par DNP3NetworkTopology.meter[80] eventBytes 542
par DNP3NetworkTopology.meter[80] ackTimeout 2s
attr unit s
par DNP3NetworkTopology.meter[80] eventInterval 1s
attr unit s
par DNP3NetworkTopology.meter[80] stopGenerationTime 300s
attr unit s
scalar DNP3NetworkTopology.meter[80] retransmissions 113
scalar DNP3NetworkTopology.meter[80] generatedEventPackets 68
par DNP3NetworkTopology.meter[81] typename "\"basicbaseline.DNP3SmartMeter\""
par DNP3NetworkTopology.meter[81] meterId 81
par DNP3NetworkTopology.meter[81] totalPackets 500
par DNP3NetworkTopology.meter[81] eventBytes 542
par DNP3NetworkTopology.meter[81] ackTimeout 2s
attr unit s
par DNP3NetworkTopology.meter[81] eventInterval 1s
attr unit s
par DNP3NetworkTopology.meter[81] stopGenerationTime 300s
attr unit s
scalar DNP3NetworkTopology.meter[81] retransmissions 113
scalar DNP3NetworkTopology.meter[81] generatedEventPackets 68
par DNP3NetworkTopology.meter[82] typename "\"basicbaseline.DNP3SmartMeter\""
par DNP3NetworkTopology.meter[82] meterId 82
par DNP3NetworkTopology.meter[82] totalPackets 500
par DNP3NetworkTopology.meter[82] eventBytes 542
par DNP3NetworkTopology.meter[82] ackTimeout 2s
attr unit s
par DNP3NetworkTopology.meter[82] eventInterval 1s
attr unit s
par DNP3NetworkTopology.meter[82] stopGenerationTime 300s
attr unit s
scalar DNP3NetworkTopology.meter[82] retransmissions 113
scalar DNP3NetworkTopology.meter[82] generatedEventPackets 68
par DNP3NetworkTopology.meter[83] typename "\"basicbaseline.DNP3SmartMeter\""
par DNP3NetworkTopology.meter[83] meterId 83
par DNP3NetworkTopology.meter[83] totalPackets 500
par DNP3NetworkTopology.meter[83] eventBytes 542
par DNP3NetworkTopology.meter[83] ackTimeout 2s
attr unit s
par DNP3NetworkTopology.meter[83] eventInterval 1s
attr unit s
par DNP3NetworkTopology.meter[83] stopGenerationTime 300s
attr unit s
scalar DNP3NetworkTopology.meter[83] retransmissions 113
scalar DNP3NetworkTopology.meter[83] generatedEventPackets 68
par DNP3NetworkTopology.meter[84] typename "\"basicbaseline.DNP3SmartMeter\""
par DNP3NetworkTopology.meter[84] meterId 84
par DNP3NetworkTopology.meter[84] totalPackets 500
par DNP3NetworkTopology.meter[84] eventBytes 542
par DNP3NetworkTopology.meter[84] ackTimeout 2s
attr unit s
par DNP3NetworkTopology.meter[84] eventInterval 1s
attr unit s
par DNP3NetworkTopology.meter[84] stopGenerationTime 300s
attr unit s
scalar DNP3NetworkTopology.meter[84] retransmissions 113
scalar DNP3NetworkTopology.meter[84] generatedEventPackets 68
par DNP3NetworkTopology.meter[85] typename "\"basicbaseline.DNP3SmartMeter\""
par DNP3NetworkTopology.meter[85] meterId 85
par DNP3NetworkTopology.meter[85] totalPackets 500
par DNP3NetworkTopology.meter[85] eventBytes 542
par DNP3NetworkTopology.meter[85] ackTimeout 2s
attr unit s
par DNP3NetworkTopology.meter[85] eventInterval 1s
attr unit s
par DNP3NetworkTopology.meter[85] stopGenerationTime 300s
attr unit s
scalar DNP3NetworkTopology.meter[85] retransmissions 113
scalar DNP3NetworkTopology.meter[85] generatedEventPackets 70
par DNP3NetworkTopology.meter[86] typename "\"basicbaseline.DNP3SmartMeter\""
par DNP3NetworkTopology.meter[86] meterId 86
par DNP3NetworkTopology.meter[86] totalPackets 500
par DNP3NetworkTopology.meter[86] eventBytes 542
par DNP3NetworkTopology.meter[86] ackTimeout 2s
attr unit s
par DNP3NetworkTopology.meter[86] eventInterval 1s
attr unit s
par DNP3NetworkTopology.meter[86] stopGenerationTime 300s
attr unit s
scalar DNP3NetworkTopology.meter[86] retransmissions 112
scalar DNP3NetworkTopology.meter[86] generatedEventPackets 69
par DNP3NetworkTopology.meter[87] typename "\"basicbaseline.DNP3SmartMeter\""
par DNP3NetworkTopology.meter[87] meterId 87
par DNP3NetworkTopology.meter[87] totalPackets 500
par DNP3NetworkTopology.meter[87] eventBytes 542
par DNP3NetworkTopology.meter[87] ackTimeout 2s
attr unit s
par DNP3NetworkTopology.meter[87] eventInterval 1s
attr unit s
par DNP3NetworkTopology.meter[87] stopGenerationTime 300s
attr unit s
scalar DNP3NetworkTopology.meter[87] retransmissions 112
scalar DNP3NetworkTopology.meter[87] generatedEventPackets 69
par DNP3NetworkTopology.meter[88] typename "\"basicbaseline.DNP3SmartMeter\""
par DNP3NetworkTopology.meter[88] meterId 88
par DNP3NetworkTopology.meter[88] totalPackets 500
par DNP3NetworkTopology.meter[88] eventBytes 542
par DNP3NetworkTopology.meter[88] ackTimeout 2s
attr unit s
par DNP3NetworkTopology.meter[88] eventInterval 1s
attr unit s
par DNP3NetworkTopology.meter[88] stopGenerationTime 300s
attr unit s
scalar DNP3NetworkTopology.meter[88] retransmissions 114
scalar DNP3NetworkTopology.meter[88] generatedEventPackets 67
par DNP3NetworkTopology.meter[89] typename "\"basicbaseline.DNP3SmartMeter\""
par DNP3NetworkTopology.meter[89] meterId 89
par DNP3NetworkTopology.meter[89] totalPackets 500
par DNP3NetworkTopology.meter[89] eventBytes 542
par DNP3NetworkTopology.meter[89] ackTimeout 2s
attr unit s
par DNP3NetworkTopology.meter[89] eventInterval 1s
attr unit s
par DNP3NetworkTopology.meter[89] stopGenerationTime 300s
attr unit s
scalar DNP3NetworkTopology.meter[89] retransmissions 116
scalar DNP3NetworkTopology.meter[89] generatedEventPackets 68
par DNP3NetworkTopology.meter[90] typename "\"basicbaseline.DNP3SmartMeter\""
par DNP3NetworkTopology.meter[90] meterId 90
par DNP3NetworkTopology.meter[90] totalPackets 500
par DNP3NetworkTopology.meter[90] eventBytes 542
par DNP3NetworkTopology.meter[90] ackTimeout 2s
attr unit s
par DNP3NetworkTopology.meter[90] eventInterval 1s
attr unit s
par DNP3NetworkTopology.meter[90] stopGenerationTime 300s
attr unit s
scalar DNP3NetworkTopology.meter[90] retransmissions 100
scalar DNP3NetworkTopology.meter[90] generatedEventPackets 67
par DNP3NetworkTopology.meter[91] typename "\"basicbaseline.DNP3SmartMeter\""
par DNP3NetworkTopology.meter[91] meterId 91
par DNP3NetworkTopology.meter[91] totalPackets 500
par DNP3NetworkTopology.meter[91] eventBytes 542
par DNP3NetworkTopology.meter[91] ackTimeout 2s
attr unit s
par DNP3NetworkTopology.meter[91] eventInterval 1s
attr unit s
par DNP3NetworkTopology.meter[91] stopGenerationTime 300s
attr unit s
scalar DNP3NetworkTopology.meter[91] retransmissions 100
scalar DNP3NetworkTopology.meter[91] generatedEventPackets 67
par DNP3NetworkTopology.meter[92] typename "\"basicbaseline.DNP3SmartMeter\""
par DNP3NetworkTopology.meter[92] meterId 92
par DNP3NetworkTopology.meter[92] totalPackets 500
par DNP3NetworkTopology.meter[92] eventBytes 542
par DNP3NetworkTopology.meter[92] ackTimeout 2s
attr unit s
par DNP3NetworkTopology.meter[92] eventInterval 1s
attr unit s
par DNP3NetworkTopology.meter[92] stopGenerationTime 300s
attr unit s
scalar DNP3NetworkTopology.meter[92] retransmissions 100
scalar DNP3NetworkTopology.meter[92] generatedEventPackets 67
par DNP3NetworkTopology.meter[93] typename "\"basicbaseline.DNP3SmartMeter\""
par DNP3NetworkTopology.meter[93] meterId 93
par DNP3NetworkTopology.meter[93] totalPackets 500
par DNP3NetworkTopology.meter[93] eventBytes 542
par DNP3NetworkTopology.meter[93] ackTimeout 2s
attr unit s
par DNP3NetworkTopology.meter[93] eventInterval 1s
attr unit s
par DNP3NetworkTopology.meter[93] stopGenerationTime 300s
attr unit s
scalar DNP3NetworkTopology.meter[93] retransmissions 100
scalar DNP3NetworkTopology.meter[93] generatedEventPackets 67
par DNP3NetworkTopology.meter[94] typename "\"basicbaseline.DNP3SmartMeter\""
par DNP3NetworkTopology.meter[94] meterId 94
par DNP3NetworkTopology.meter[94] totalPackets 500
par DNP3NetworkTopology.meter[94] eventBytes 542
par DNP3NetworkTopology.meter[94] ackTimeout 2s
attr unit s
par DNP3NetworkTopology.meter[94] eventInterval 1s
attr unit s
par DNP3NetworkTopology.meter[94] stopGenerationTime 300s
attr unit s
scalar DNP3NetworkTopology.meter[94] retransmissions 100
scalar DNP3NetworkTopology.meter[94] generatedEventPackets 67
par DNP3NetworkTopology.meter[95] typename "\"basicbaseline.DNP3SmartMeter\""
par DNP3NetworkTopology.meter[95] meterId 95
par DNP3NetworkTopology.meter[95] totalPackets 500
par DNP3NetworkTopology.meter[95] eventBytes 542
par DNP3NetworkTopology.meter[95] ackTimeout 2s
attr unit s
par DNP3NetworkTopology.meter[95] eventInterval 1s
attr unit s
par DNP3NetworkTopology.meter[95] stopGenerationTime 300s
attr unit s
scalar DNP3NetworkTopology.meter[95] retransmissions 100
scalar DNP3NetworkTopology.meter[95] generatedEventPackets 67
par DNP3NetworkTopology.meter[96] typename "\"basicbaseline.DNP3SmartMeter\""
par DNP3NetworkTopology.meter[96] meterId 96
par DNP3NetworkTopology.meter[96] totalPackets 500
par DNP3NetworkTopology.meter[96] eventBytes 542
par DNP3NetworkTopology.meter[96] ackTimeout 2s
attr unit s
par DNP3NetworkTopology.meter[96] eventInterval 1s
attr unit s
par DNP3NetworkTopology.meter[96] stopGenerationTime 300s
attr unit s
scalar DNP3NetworkTopology.meter[96] retransmissions 99
scalar DNP3NetworkTopology.meter[96] generatedEventPackets 68
par DNP3NetworkTopology.meter[97] typename "\"basicbaseline.DNP3SmartMeter\""
par DNP3NetworkTopology.meter[97] meterId 97
par DNP3NetworkTopology.meter[97] totalPackets 500
par DNP3NetworkTopology.meter[97] eventBytes 542
par DNP3NetworkTopology.meter[97] ackTimeout 2s
attr unit s
par DNP3NetworkTopology.meter[97] eventInterval 1s
attr unit s
par DNP3NetworkTopology.meter[97] stopGenerationTime 300s
attr unit s
scalar DNP3NetworkTopology.meter[97] retransmissions 98
scalar DNP3NetworkTopology.meter[97] generatedEventPackets 68
par DNP3NetworkTopology.meter[98] typename "\"basicbaseline.DNP3SmartMeter\""
par DNP3NetworkTopology.meter[98] meterId 98
par DNP3NetworkTopology.meter[98] totalPackets 500
par DNP3NetworkTopology.meter[98] eventBytes 542
par DNP3NetworkTopology.meter[98] ackTimeout 2s
attr unit s
par DNP3NetworkTopology.meter[98] eventInterval 1s
attr unit s
par DNP3NetworkTopology.meter[98] stopGenerationTime 300s
attr unit s
scalar DNP3NetworkTopology.meter[98] retransmissions 98
scalar DNP3NetworkTopology.meter[98] generatedEventPackets 68
par DNP3NetworkTopology.meter[99] typename "\"basicbaseline.DNP3SmartMeter\""
par DNP3NetworkTopology.meter[99] meterId 99
par DNP3NetworkTopology.meter[99] totalPackets 500
par DNP3NetworkTopology.meter[99] eventBytes 542
par DNP3NetworkTopology.meter[99] ackTimeout 2s
attr unit s
par DNP3NetworkTopology.meter[99] eventInterval 1s
attr unit s
par DNP3NetworkTopology.meter[99] stopGenerationTime 300s
attr unit s
scalar DNP3NetworkTopology.meter[99] retransmissions 101
scalar DNP3NetworkTopology.meter[99] generatedEventPackets 66
par DNP3NetworkTopology.Concatenator typename "\"basicbaseline.Concatenator\""
scalar DNP3NetworkTopology.Concatenator droppedPackets 9830
scalar DNP3NetworkTopology.Concatenator queueLength:mean 33.684528491866
attr recordingmode mean
attr source queueLength
attr title "Queue Length, mean"
scalar DNP3NetworkTopology.Concatenator queueLength:max 50
attr recordingmode max
attr source queueLength
attr title "Queue Length, max"
scalar DNP3NetworkTopology.Concatenator queueLength:timeavg 32.965566917605
attr recordingmode timeavg
attr source queueLength
attr title "Queue Length, timeavg"
par DNP3NetworkTopology.distAuto typename "\"basicbaseline.DNP3DA\""
par DNP3NetworkTopology.distAuto numMeters 100
par DNP3NetworkTopology.distAuto processingDelay 0.01s
attr unit s
scalar DNP3NetworkTopology.distAuto receivedEventPackets 8045
scalar DNP3NetworkTopology.distAuto eventBytesTotal 4360390
scalar DNP3NetworkTopology.distAuto ackBytesTotal 547060
scalar DNP3NetworkTopology.distAuto confirmBytesTotal 466610
scalar DNP3NetworkTopology.distAuto tcpAckBytesTotal 455010
scalar DNP3NetworkTopology.distAuto packetDelay:mean 3.223195075776
attr recordingmode mean
attr source packetDelay
attr title "Packet Delay, mean"
scalar DNP3NetworkTopology.distAuto packetDelay:max 6.801207692308
attr recordingmode max
attr source packetDelay
attr title "Packet Delay, max"
scalar DNP3NetworkTopology.distAuto packetDelay:min 0.107582692308
attr recordingmode min
attr source packetDelay
attr title "Packet Delay, min"
par DNP3NetworkTopology typename "\"basicbaseline.simulations.DNP3NetworkTopology\""
par DNP3NetworkTopology numMeters 100

