version 3
run LightTraffic_100-0-20260420-13:41:13-3924
attr configname LightTraffic_100
attr datetime 20260420-13:41:13
attr datetimef 20260420-134113
attr experiment LightTraffic_100
attr inifile omnetpp.ini
attr iterationvars ""
attr iterationvarsd ""
attr iterationvarsf ""
attr measurement ""
attr network DNP3NetworkTopology
attr processid 3924
attr repetition 0
attr replication #0
attr resultdir results
attr runnumber 0
attr seedset 0
config image-path ../../inet4.5/images
config description "Light traffic with 100 smart meters"
config *.numMeters 100
config *.distAuto.numMeters 100
config **.eventInterval 10s
config **.eventBytes 442
config network DNP3NetworkTopology
config sim-time-limit 350s
config output-scalar-file LightTraffic_100.sca
config output-vector-file LightTraffic_100.vec
config **.scalar-recording true
config **.vector-recording true
config **.result-recording-modes all
config *.distAuto.processingDelay 10ms
config **.totalPackets 500
config **.ackTimeout 2s
config **.stopGenerationTime 300s
config *.meter[*].meterId index

par DNP3NetworkTopology.meter[0].interface$o.channel typename "\"ned.DatarateChannel\""
par DNP3NetworkTopology.meter[0].interface$o.channel disabled false
attr mutable ""
par DNP3NetworkTopology.meter[0].interface$o.channel delay 0.002s
attr mutable ""
attr unit s
par DNP3NetworkTopology.meter[0].interface$o.channel datarate 65000bps
attr mutable ""
attr unit bps
par DNP3NetworkTopology.meter[0].interface$o.channel ber 0
attr mutable ""
par DNP3NetworkTopology.meter[0].interface$o.channel per 0
attr mutable ""
scalar DNP3NetworkTopology.meter[0].interface$o.channel packetsDiscarded:count 1
attr interpolationmode none
attr recordingmode count
attr source constant1(messageDiscarded)
scalar DNP3NetworkTopology.meter[0].interface$o.channel packets:count 59
attr interpolationmode none
attr recordingmode count
attr source constant1(messageSent)
scalar DNP3NetworkTopology.meter[0].interface$o.channel packetBytes:sum 14500
attr interpolationmode none
attr recordingmode sum
attr source packetBytes(messageSent)
attr unit B
scalar DNP3NetworkTopology.meter[0].interface$o.channel throughput:last 399.81933892736
attr recordingmode last
attr source sumPerDuration(packetBits(messageSent))
attr unit bps
scalar DNP3NetworkTopology.meter[0].interface$o.channel utilization:last 0.0061509154139173
attr recordingmode last
attr source timeavg(channelBusy)
par DNP3NetworkTopology.Concatenator.MeterInterface$o[0].channel typename "\"ned.DatarateChannel\""
par DNP3NetworkTopology.Concatenator.MeterInterface$o[0].channel disabled false
attr mutable ""
par DNP3NetworkTopology.Concatenator.MeterInterface$o[0].channel delay 0.002s
attr mutable ""
attr unit s
par DNP3NetworkTopology.Concatenator.MeterInterface$o[0].channel datarate 65000bps
attr mutable ""
attr unit bps
par DNP3NetworkTopology.Concatenator.MeterInterface$o[0].channel ber 0
attr mutable ""
par DNP3NetworkTopology.Concatenator.MeterInterface$o[0].channel per 0
attr mutable ""
scalar DNP3NetworkTopology.Concatenator.MeterInterface$o[0].channel packetsDiscarded:count 1
attr interpolationmode none
attr recordingmode count
attr source constant1(messageDiscarded)
scalar DNP3NetworkTopology.Concatenator.MeterInterface$o[0].channel packets:count 59
attr interpolationmode none
attr recordingmode count
attr source constant1(messageSent)
scalar DNP3NetworkTopology.Concatenator.MeterInterface$o[0].channel packetBytes:sum 3654
attr interpolationmode none
attr recordingmode sum
attr source packetBytes(messageSent)
attr unit B
scalar DNP3NetworkTopology.Concatenator.MeterInterface$o[0].channel throughput:last 100.75764704423
attr recordingmode last
attr source sumPerDuration(packetBits(messageSent))
attr unit bps
scalar DNP3NetworkTopology.Concatenator.MeterInterface$o[0].channel utilization:last 0.0015500795069936
attr recordingmode last
attr source timeavg(channelBusy)
par DNP3NetworkTopology.meter[1].interface$o.channel typename "\"ned.DatarateChannel\""
par DNP3NetworkTopology.meter[1].interface$o.channel disabled false
attr mutable ""
par DNP3NetworkTopology.meter[1].interface$o.channel delay 0.002s
attr mutable ""
attr unit s
par DNP3NetworkTopology.meter[1].interface$o.channel datarate 65000bps
attr mutable ""
attr unit bps
par DNP3NetworkTopology.meter[1].interface$o.channel ber 0
attr mutable ""
par DNP3NetworkTopology.meter[1].interface$o.channel per 0
attr mutable ""
scalar DNP3NetworkTopology.meter[1].interface$o.channel packetsDiscarded:count 1
attr interpolationmode none
attr recordingmode count
attr source constant1(messageDiscarded)
scalar DNP3NetworkTopology.meter[1].interface$o.channel packets:count 59
attr interpolationmode none
attr recordingmode count
attr source constant1(messageSent)
scalar DNP3NetworkTopology.meter[1].interface$o.channel packetBytes:sum 14500
attr interpolationmode none
attr recordingmode sum
attr source packetBytes(messageSent)
attr unit B
scalar DNP3NetworkTopology.meter[1].interface$o.channel throughput:last 399.7809290645
attr recordingmode last
attr source sumPerDuration(packetBits(messageSent))
attr unit bps
scalar DNP3NetworkTopology.meter[1].interface$o.channel utilization:last 0.0061503245220261
attr recordingmode last
attr source timeavg(channelBusy)
par DNP3NetworkTopology.Concatenator.MeterInterface$o[1].channel typename "\"ned.DatarateChannel\""
par DNP3NetworkTopology.Concatenator.MeterInterface$o[1].channel disabled false
attr mutable ""
par DNP3NetworkTopology.Concatenator.MeterInterface$o[1].channel delay 0.002s
attr mutable ""
attr unit s
par DNP3NetworkTopology.Concatenator.MeterInterface$o[1].channel datarate 65000bps
attr mutable ""
attr unit bps
par DNP3NetworkTopology.Concatenator.MeterInterface$o[1].channel ber 0
attr mutable ""
par DNP3NetworkTopology.Concatenator.MeterInterface$o[1].channel per 0
attr mutable ""
scalar DNP3NetworkTopology.Concatenator.MeterInterface$o[1].channel packetsDiscarded:count 1
attr interpolationmode none
attr recordingmode count
attr source constant1(messageDiscarded)
scalar DNP3NetworkTopology.Concatenator.MeterInterface$o[1].channel packets:count 59
attr interpolationmode none
attr recordingmode count
attr source constant1(messageSent)
scalar DNP3NetworkTopology.Concatenator.MeterInterface$o[1].channel packetBytes:sum 3654
attr interpolationmode none
attr recordingmode sum
attr source packetBytes(messageSent)
attr unit B
scalar DNP3NetworkTopology.Concatenator.MeterInterface$o[1].channel throughput:last 100.74796714904
attr recordingmode last
attr source sumPerDuration(packetBits(messageSent))
attr unit bps
scalar DNP3NetworkTopology.Concatenator.MeterInterface$o[1].channel utilization:last 0.001549930592857
attr recordingmode last
attr source timeavg(channelBusy)
par DNP3NetworkTopology.meter[2].interface$o.channel typename "\"ned.DatarateChannel\""
par DNP3NetworkTopology.meter[2].interface$o.channel disabled false
attr mutable ""
par DNP3NetworkTopology.meter[2].interface$o.channel delay 0.002s
attr mutable ""
attr unit s
par DNP3NetworkTopology.meter[2].interface$o.channel datarate 65000bps
attr mutable ""
attr unit bps
par DNP3NetworkTopology.meter[2].interface$o.channel ber 0
attr mutable ""
par DNP3NetworkTopology.meter[2].interface$o.channel per 0
attr mutable ""
scalar DNP3NetworkTopology.meter[2].interface$o.channel packetsDiscarded:count 1
attr interpolationmode none
attr recordingmode count
attr source constant1(messageDiscarded)
scalar DNP3NetworkTopology.meter[2].interface$o.channel packets:count 59
attr interpolationmode none
attr recordingmode count
attr source constant1(messageSent)
scalar DNP3NetworkTopology.meter[2].interface$o.channel packetBytes:sum 14500
attr interpolationmode none
attr recordingmode sum
attr source packetBytes(messageSent)
attr unit B
scalar DNP3NetworkTopology.meter[2].interface$o.channel throughput:last 399.74252658086
attr recordingmode last
attr source sumPerDuration(packetBits(messageSent))
attr unit bps
scalar DNP3NetworkTopology.meter[2].interface$o.channel utilization:last 0.006149733743653
attr recordingmode last
attr source timeavg(channelBusy)
par DNP3NetworkTopology.Concatenator.MeterInterface$o[2].channel typename "\"ned.DatarateChannel\""
par DNP3NetworkTopology.Concatenator.MeterInterface$o[2].channel disabled false
attr mutable ""
par DNP3NetworkTopology.Concatenator.MeterInterface$o[2].channel delay 0.002s
attr mutable ""
attr unit s
par DNP3NetworkTopology.Concatenator.MeterInterface$o[2].channel datarate 65000bps
attr mutable ""
attr unit bps
par DNP3NetworkTopology.Concatenator.MeterInterface$o[2].channel ber 0
attr mutable ""
par DNP3NetworkTopology.Concatenator.MeterInterface$o[2].channel per 0
attr mutable ""
scalar DNP3NetworkTopology.Concatenator.MeterInterface$o[2].channel packetsDiscarded:count 1
attr interpolationmode none
attr recordingmode count
attr source constant1(messageDiscarded)
scalar DNP3NetworkTopology.Concatenator.MeterInterface$o[2].channel packets:count 59
attr interpolationmode none
attr recordingmode count
attr source constant1(messageSent)
scalar DNP3NetworkTopology.Concatenator.MeterInterface$o[2].channel packetBytes:sum 3654
attr interpolationmode none
attr recordingmode sum
attr source packetBytes(messageSent)
attr unit B
scalar DNP3NetworkTopology.Concatenator.MeterInterface$o[2].channel throughput:last 100.73828911358
attr recordingmode last
attr source sumPerDuration(packetBits(messageSent))
attr unit bps
scalar DNP3NetworkTopology.Concatenator.MeterInterface$o[2].channel utilization:last 0.0015497817073296
attr recordingmode last
attr source timeavg(channelBusy)
par DNP3NetworkTopology.meter[3].interface$o.channel typename "\"ned.DatarateChannel\""
par DNP3NetworkTopology.meter[3].interface$o.channel disabled false
attr mutable ""
par DNP3NetworkTopology.meter[3].interface$o.channel delay 0.002s
attr mutable ""
attr unit s
par DNP3NetworkTopology.meter[3].interface$o.channel datarate 65000bps
attr mutable ""
attr unit bps
par DNP3NetworkTopology.meter[3].interface$o.channel ber 0
attr mutable ""
par DNP3NetworkTopology.meter[3].interface$o.channel per 0
attr mutable ""
scalar DNP3NetworkTopology.meter[3].interface$o.channel packetsDiscarded:count 1
attr interpolationmode none
attr recordingmode count
attr source constant1(messageDiscarded)
scalar DNP3NetworkTopology.meter[3].interface$o.channel packets:count 59
attr interpolationmode none
attr recordingmode count
attr source constant1(messageSent)
scalar DNP3NetworkTopology.meter[3].interface$o.channel packetBytes:sum 14500
attr interpolationmode none
attr recordingmode sum
attr source packetBytes(messageSent)
attr unit B
scalar DNP3NetworkTopology.meter[3].interface$o.channel throughput:last 399.7041314743
attr recordingmode last
attr source sumPerDuration(packetBits(messageSent))
attr unit bps
scalar DNP3NetworkTopology.meter[3].interface$o.channel utilization:last 0.006149143078765
attr recordingmode last
attr source timeavg(channelBusy)
par DNP3NetworkTopology.Concatenator.MeterInterface$o[3].channel typename "\"ned.DatarateChannel\""
par DNP3NetworkTopology.Concatenator.MeterInterface$o[3].channel disabled false
attr mutable ""
par DNP3NetworkTopology.Concatenator.MeterInterface$o[3].channel delay 0.002s
attr mutable ""
attr unit s
par DNP3NetworkTopology.Concatenator.MeterInterface$o[3].channel datarate 65000bps
attr mutable ""
attr unit bps
par DNP3NetworkTopology.Concatenator.MeterInterface$o[3].channel ber 0
attr mutable ""
par DNP3NetworkTopology.Concatenator.MeterInterface$o[3].channel per 0
attr mutable ""
scalar DNP3NetworkTopology.Concatenator.MeterInterface$o[3].channel packetsDiscarded:count 1
attr interpolationmode none
attr recordingmode count
attr source constant1(messageDiscarded)
scalar DNP3NetworkTopology.Concatenator.MeterInterface$o[3].channel packets:count 59
attr interpolationmode none
attr recordingmode count
attr source constant1(messageSent)
scalar DNP3NetworkTopology.Concatenator.MeterInterface$o[3].channel packetBytes:sum 3654
attr interpolationmode none
attr recordingmode sum
attr source packetBytes(messageSent)
attr unit B
scalar DNP3NetworkTopology.Concatenator.MeterInterface$o[3].channel throughput:last 100.72861293733
attr recordingmode last
attr source sumPerDuration(packetBits(messageSent))
attr unit bps
scalar DNP3NetworkTopology.Concatenator.MeterInterface$o[3].channel utilization:last 0.0015496328504032
attr recordingmode last
attr source timeavg(channelBusy)
par DNP3NetworkTopology.meter[4].interface$o.channel typename "\"ned.DatarateChannel\""
par DNP3NetworkTopology.meter[4].interface$o.channel disabled false
attr mutable ""
par DNP3NetworkTopology.meter[4].interface$o.channel delay 0.002s
attr mutable ""
attr unit s
par DNP3NetworkTopology.meter[4].interface$o.channel datarate 65000bps
attr mutable ""
attr unit bps
par DNP3NetworkTopology.meter[4].interface$o.channel ber 0
attr mutable ""
par DNP3NetworkTopology.meter[4].interface$o.channel per 0
attr mutable ""
scalar DNP3NetworkTopology.meter[4].interface$o.channel packetsDiscarded:count 1
attr interpolationmode none
attr recordingmode count
attr source constant1(messageDiscarded)
scalar DNP3NetworkTopology.meter[4].interface$o.channel packets:count 59
attr interpolationmode none
attr recordingmode count
attr source constant1(messageSent)
scalar DNP3NetworkTopology.meter[4].interface$o.channel packetBytes:sum 14500
attr interpolationmode none
attr recordingmode sum
attr source packetBytes(messageSent)
attr unit B
scalar DNP3NetworkTopology.meter[4].interface$o.channel throughput:last 399.6657437427
attr recordingmode last
attr source sumPerDuration(packetBits(messageSent))
attr unit bps
scalar DNP3NetworkTopology.meter[4].interface$o.channel utilization:last 0.0061485525273297
attr recordingmode last
attr source timeavg(channelBusy)
par DNP3NetworkTopology.Concatenator.MeterInterface$o[4].channel typename "\"ned.DatarateChannel\""
par DNP3NetworkTopology.Concatenator.MeterInterface$o[4].channel disabled false
attr mutable ""
par DNP3NetworkTopology.Concatenator.MeterInterface$o[4].channel delay 0.002s
attr mutable ""
attr unit s
par DNP3NetworkTopology.Concatenator.MeterInterface$o[4].channel datarate 65000bps
attr mutable ""
attr unit bps
par DNP3NetworkTopology.Concatenator.MeterInterface$o[4].channel ber 0
attr mutable ""
par DNP3NetworkTopology.Concatenator.MeterInterface$o[4].channel per 0
attr mutable ""
scalar DNP3NetworkTopology.Concatenator.MeterInterface$o[4].channel packetsDiscarded:count 1
attr interpolationmode none
attr recordingmode count
attr source constant1(messageDiscarded)
scalar DNP3NetworkTopology.Concatenator.MeterInterface$o[4].channel packets:count 59
attr interpolationmode none
attr recordingmode count
attr source constant1(messageSent)
scalar DNP3NetworkTopology.Concatenator.MeterInterface$o[4].channel packetBytes:sum 3654
attr interpolationmode none
attr recordingmode sum
attr source packetBytes(messageSent)
attr unit B
scalar DNP3NetworkTopology.Concatenator.MeterInterface$o[4].channel throughput:last 100.71893861975
attr recordingmode last
attr source sumPerDuration(packetBits(messageSent))
attr unit bps
scalar DNP3NetworkTopology.Concatenator.MeterInterface$o[4].channel utilization:last 0.0015494840220695
attr recordingmode last
attr source timeavg(channelBusy)
par DNP3NetworkTopology.meter[5].interface$o.channel typename "\"ned.DatarateChannel\""
par DNP3NetworkTopology.meter[5].interface$o.channel disabled false
attr mutable ""
par DNP3NetworkTopology.meter[5].interface$o.channel delay 0.002s
attr mutable ""
attr unit s
par DNP3NetworkTopology.meter[5].interface$o.channel datarate 65000bps
attr mutable ""
attr unit bps
par DNP3NetworkTopology.meter[5].interface$o.channel ber 0
attr mutable ""
par DNP3NetworkTopology.meter[5].interface$o.channel per 0
attr mutable ""
scalar DNP3NetworkTopology.meter[5].interface$o.channel packetsDiscarded:count 1
attr interpolationmode none
attr recordingmode count
attr source constant1(messageDiscarded)
scalar DNP3NetworkTopology.meter[5].interface$o.channel packets:count 59
attr interpolationmode none
attr recordingmode count
attr source constant1(messageSent)
scalar DNP3NetworkTopology.meter[5].interface$o.channel packetBytes:sum 14500
attr interpolationmode none
attr recordingmode sum
attr source packetBytes(messageSent)
attr unit B
scalar DNP3NetworkTopology.meter[5].interface$o.channel throughput:last 399.62736338394
attr recordingmode last
attr source sumPerDuration(packetBits(messageSent))
attr unit bps
scalar DNP3NetworkTopology.meter[5].interface$o.channel utilization:last 0.0061479620893142
attr recordingmode last
attr source timeavg(channelBusy)
par DNP3NetworkTopology.Concatenator.MeterInterface$o[5].channel typename "\"ned.DatarateChannel\""
par DNP3NetworkTopology.Concatenator.MeterInterface$o[5].channel disabled false
attr mutable ""
par DNP3NetworkTopology.Concatenator.MeterInterface$o[5].channel delay 0.002s
attr mutable ""
attr unit s
par DNP3NetworkTopology.Concatenator.MeterInterface$o[5].channel datarate 65000bps
attr mutable ""
attr unit bps
par DNP3NetworkTopology.Concatenator.MeterInterface$o[5].channel ber 0
attr mutable ""
par DNP3NetworkTopology.Concatenator.MeterInterface$o[5].channel per 0
attr mutable ""
scalar DNP3NetworkTopology.Concatenator.MeterInterface$o[5].channel packetsDiscarded:count 1
attr interpolationmode none
attr recordingmode count
attr source constant1(messageDiscarded)
scalar DNP3NetworkTopology.Concatenator.MeterInterface$o[5].channel packets:count 59
attr interpolationmode none
attr recordingmode count
attr source constant1(messageSent)
scalar DNP3NetworkTopology.Concatenator.MeterInterface$o[5].channel packetBytes:sum 3654
attr interpolationmode none
attr recordingmode sum
attr source packetBytes(messageSent)
attr unit B
scalar DNP3NetworkTopology.Concatenator.MeterInterface$o[5].channel throughput:last 100.70926616029
attr recordingmode last
attr source sumPerDuration(packetBits(messageSent))
attr unit bps
scalar DNP3NetworkTopology.Concatenator.MeterInterface$o[5].channel utilization:last 0.0015493352223203
attr recordingmode last
attr source timeavg(channelBusy)
par DNP3NetworkTopology.meter[6].interface$o.channel typename "\"ned.DatarateChannel\""
par DNP3NetworkTopology.meter[6].interface$o.channel disabled false
attr mutable ""
par DNP3NetworkTopology.meter[6].interface$o.channel delay 0.002s
attr mutable ""
attr unit s
par DNP3NetworkTopology.meter[6].interface$o.channel datarate 65000bps
attr mutable ""
attr unit bps
par DNP3NetworkTopology.meter[6].interface$o.channel ber 0
attr mutable ""
par DNP3NetworkTopology.meter[6].interface$o.channel per 0
attr mutable ""
scalar DNP3NetworkTopology.meter[6].interface$o.channel packetsDiscarded:count 1
attr interpolationmode none
attr recordingmode count
attr source constant1(messageDiscarded)
scalar DNP3NetworkTopology.meter[6].interface$o.channel packets:count 59
attr interpolationmode none
attr recordingmode count
attr source constant1(messageSent)
scalar DNP3NetworkTopology.meter[6].interface$o.channel packetBytes:sum 14500
attr interpolationmode none
attr recordingmode sum
attr source packetBytes(messageSent)
attr unit B
scalar DNP3NetworkTopology.meter[6].interface$o.channel throughput:last 399.58899039589
attr recordingmode last
attr source sumPerDuration(packetBits(messageSent))
attr unit bps
scalar DNP3NetworkTopology.meter[6].interface$o.channel utilization:last 0.0061473717646859
attr recordingmode last
attr source timeavg(channelBusy)
par DNP3NetworkTopology.Concatenator.MeterInterface$o[6].channel typename "\"ned.DatarateChannel\""
par DNP3NetworkTopology.Concatenator.MeterInterface$o[6].channel disabled false
attr mutable ""
par DNP3NetworkTopology.Concatenator.MeterInterface$o[6].channel delay 0.002s
attr mutable ""
attr unit s
par DNP3NetworkTopology.Concatenator.MeterInterface$o[6].channel datarate 65000bps
attr mutable ""
attr unit bps
par DNP3NetworkTopology.Concatenator.MeterInterface$o[6].channel ber 0
attr mutable ""
par DNP3NetworkTopology.Concatenator.MeterInterface$o[6].channel per 0
attr mutable ""
scalar DNP3NetworkTopology.Concatenator.MeterInterface$o[6].channel packetsDiscarded:count 1
attr interpolationmode none
attr recordingmode count
attr source constant1(messageDiscarded)
scalar DNP3NetworkTopology.Concatenator.MeterInterface$o[6].channel packets:count 59
attr interpolationmode none
attr recordingmode count
attr source constant1(messageSent)
scalar DNP3NetworkTopology.Concatenator.MeterInterface$o[6].channel packetBytes:sum 3654
attr interpolationmode none
attr recordingmode sum
attr source packetBytes(messageSent)
attr unit B
scalar DNP3NetworkTopology.Concatenator.MeterInterface$o[6].channel throughput:last 100.69959555843
attr recordingmode last
attr source sumPerDuration(packetBits(messageSent))
attr unit bps
scalar DNP3NetworkTopology.Concatenator.MeterInterface$o[6].channel utilization:last 0.0015491864511474
attr recordingmode last
attr source timeavg(channelBusy)
par DNP3NetworkTopology.meter[7].interface$o.channel typename "\"ned.DatarateChannel\""
par DNP3NetworkTopology.meter[7].interface$o.channel disabled false
attr mutable ""
par DNP3NetworkTopology.meter[7].interface$o.channel delay 0.002s
attr mutable ""
attr unit s
par DNP3NetworkTopology.meter[7].interface$o.channel datarate 65000bps
attr mutable ""
attr unit bps
par DNP3NetworkTopology.meter[7].interface$o.channel ber 0
attr mutable ""
par DNP3NetworkTopology.meter[7].interface$o.channel per 0
attr mutable ""
scalar DNP3NetworkTopology.meter[7].interface$o.channel packetsDiscarded:count 1
attr interpolationmode none
attr recordingmode count
attr source constant1(messageDiscarded)
scalar DNP3NetworkTopology.meter[7].interface$o.channel packets:count 59
attr interpolationmode none
attr recordingmode count
attr source constant1(messageSent)
scalar DNP3NetworkTopology.meter[7].interface$o.channel packetBytes:sum 14500
attr interpolationmode none
attr recordingmode sum
attr source packetBytes(messageSent)
attr unit B
scalar DNP3NetworkTopology.meter[7].interface$o.channel throughput:last 399.55062477643
attr recordingmode last
attr source sumPerDuration(packetBits(messageSent))
attr unit bps
scalar DNP3NetworkTopology.meter[7].interface$o.channel utilization:last 0.0061467815534121
attr recordingmode last
attr source timeavg(channelBusy)
par DNP3NetworkTopology.Concatenator.MeterInterface$o[7].channel typename "\"ned.DatarateChannel\""
par DNP3NetworkTopology.Concatenator.MeterInterface$o[7].channel disabled false
attr mutable ""
par DNP3NetworkTopology.Concatenator.MeterInterface$o[7].channel delay 0.002s
attr mutable ""
attr unit s
par DNP3NetworkTopology.Concatenator.MeterInterface$o[7].channel datarate 65000bps
attr mutable ""
attr unit bps
par DNP3NetworkTopology.Concatenator.MeterInterface$o[7].channel ber 0
attr mutable ""
par DNP3NetworkTopology.Concatenator.MeterInterface$o[7].channel per 0
attr mutable ""
scalar DNP3NetworkTopology.Concatenator.MeterInterface$o[7].channel packetsDiscarded:count 1
attr interpolationmode none
attr recordingmode count
attr source constant1(messageDiscarded)
scalar DNP3NetworkTopology.Concatenator.MeterInterface$o[7].channel packets:count 59
attr interpolationmode none
attr recordingmode count
attr source constant1(messageSent)
scalar DNP3NetworkTopology.Concatenator.MeterInterface$o[7].channel packetBytes:sum 3654
attr interpolationmode none
attr recordingmode sum
attr source packetBytes(messageSent)
attr unit B
scalar DNP3NetworkTopology.Concatenator.MeterInterface$o[7].channel throughput:last 100.68992681363
attr recordingmode last
attr source sumPerDuration(packetBits(messageSent))
attr unit bps
scalar DNP3NetworkTopology.Concatenator.MeterInterface$o[7].channel utilization:last 0.0015490377085426
attr recordingmode last
attr source timeavg(channelBusy)
par DNP3NetworkTopology.meter[8].interface$o.channel typename "\"ned.DatarateChannel\""
par DNP3NetworkTopology.meter[8].interface$o.channel disabled false
attr mutable ""
par DNP3NetworkTopology.meter[8].interface$o.channel delay 0.002s
attr mutable ""
attr unit s
par DNP3NetworkTopology.meter[8].interface$o.channel datarate 65000bps
attr mutable ""
attr unit bps
par DNP3NetworkTopology.meter[8].interface$o.channel ber 0
attr mutable ""
par DNP3NetworkTopology.meter[8].interface$o.channel per 0
attr mutable ""
scalar DNP3NetworkTopology.meter[8].interface$o.channel packetsDiscarded:count 1
attr interpolationmode none
attr recordingmode count
attr source constant1(messageDiscarded)
scalar DNP3NetworkTopology.meter[8].interface$o.channel packets:count 59
attr interpolationmode none
attr recordingmode count
attr source constant1(messageSent)
scalar DNP3NetworkTopology.meter[8].interface$o.channel packetBytes:sum 14500
attr interpolationmode none
attr recordingmode sum
attr source packetBytes(messageSent)
attr unit B
scalar DNP3NetworkTopology.meter[8].interface$o.channel throughput:last 399.51226652343
attr recordingmode last
attr source sumPerDuration(packetBits(messageSent))
attr unit bps
scalar DNP3NetworkTopology.meter[8].interface$o.channel utilization:last 0.0061461914554603
attr recordingmode last
attr source timeavg(channelBusy)
par DNP3NetworkTopology.Concatenator.MeterInterface$o[8].channel typename "\"ned.DatarateChannel\""
par DNP3NetworkTopology.Concatenator.MeterInterface$o[8].channel disabled false
attr mutable ""
par DNP3NetworkTopology.Concatenator.MeterInterface$o[8].channel delay 0.002s
attr mutable ""
attr unit s
par DNP3NetworkTopology.Concatenator.MeterInterface$o[8].channel datarate 65000bps
attr mutable ""
attr unit bps
par DNP3NetworkTopology.Concatenator.MeterInterface$o[8].channel ber 0
attr mutable ""
par DNP3NetworkTopology.Concatenator.MeterInterface$o[8].channel per 0
attr mutable ""
scalar DNP3NetworkTopology.Concatenator.MeterInterface$o[8].channel packetsDiscarded:count 1
attr interpolationmode none
attr recordingmode count
attr source constant1(messageDiscarded)
scalar DNP3NetworkTopology.Concatenator.MeterInterface$o[8].channel packets:count 59
attr interpolationmode none
attr recordingmode count
attr source constant1(messageSent)
scalar DNP3NetworkTopology.Concatenator.MeterInterface$o[8].channel packetBytes:sum 3654
attr interpolationmode none
attr recordingmode sum
attr source packetBytes(messageSent)
attr unit B
scalar DNP3NetworkTopology.Concatenator.MeterInterface$o[8].channel throughput:last 100.68025992535
attr recordingmode last
attr source sumPerDuration(packetBits(messageSent))
attr unit bps
scalar DNP3NetworkTopology.Concatenator.MeterInterface$o[8].channel utilization:last 0.0015488889944975
attr recordingmode last
attr source timeavg(channelBusy)
par DNP3NetworkTopology.meter[9].interface$o.channel typename "\"ned.DatarateChannel\""
par DNP3NetworkTopology.meter[9].interface$o.channel disabled false
attr mutable ""
par DNP3NetworkTopology.meter[9].interface$o.channel delay 0.002s
attr mutable ""
attr unit s
par DNP3NetworkTopology.meter[9].interface$o.channel datarate 65000bps
attr mutable ""
attr unit bps
par DNP3NetworkTopology.meter[9].interface$o.channel ber 0
attr mutable ""
par DNP3NetworkTopology.meter[9].interface$o.channel per 0
attr mutable ""
scalar DNP3NetworkTopology.meter[9].interface$o.channel packetsDiscarded:count 1
attr interpolationmode none
attr recordingmode count
attr source constant1(messageDiscarded)
scalar DNP3NetworkTopology.meter[9].interface$o.channel packets:count 59
attr interpolationmode none
attr recordingmode count
attr source constant1(messageSent)
scalar DNP3NetworkTopology.meter[9].interface$o.channel packetBytes:sum 14500
attr interpolationmode none
attr recordingmode sum
attr source packetBytes(messageSent)
attr unit B
scalar DNP3NetworkTopology.meter[9].interface$o.channel throughput:last 399.47391563478
attr recordingmode last
attr source sumPerDuration(packetBits(messageSent))
attr unit bps
scalar DNP3NetworkTopology.meter[9].interface$o.channel utilization:last 0.0061456014707977
attr recordingmode last
attr source timeavg(channelBusy)
par DNP3NetworkTopology.Concatenator.MeterInterface$o[9].channel typename "\"ned.DatarateChannel\""
par DNP3NetworkTopology.Concatenator.MeterInterface$o[9].channel disabled false
attr mutable ""
par DNP3NetworkTopology.Concatenator.MeterInterface$o[9].channel delay 0.002s
attr mutable ""
attr unit s
par DNP3NetworkTopology.Concatenator.MeterInterface$o[9].channel datarate 65000bps
attr mutable ""
attr unit bps
par DNP3NetworkTopology.Concatenator.MeterInterface$o[9].channel ber 0
attr mutable ""
par DNP3NetworkTopology.Concatenator.MeterInterface$o[9].channel per 0
attr mutable ""
scalar DNP3NetworkTopology.Concatenator.MeterInterface$o[9].channel packetsDiscarded:count 1
attr interpolationmode none
attr recordingmode count
attr source constant1(messageDiscarded)
scalar DNP3NetworkTopology.Concatenator.MeterInterface$o[9].channel packets:count 59
attr interpolationmode none
attr recordingmode count
attr source constant1(messageSent)
scalar DNP3NetworkTopology.Concatenator.MeterInterface$o[9].channel packetBytes:sum 3654
attr interpolationmode none
attr recordingmode sum
attr source packetBytes(messageSent)
attr unit B
scalar DNP3NetworkTopology.Concatenator.MeterInterface$o[9].channel throughput:last 100.67059489306
attr recordingmode last
attr source sumPerDuration(packetBits(messageSent))
attr unit bps
scalar DNP3NetworkTopology.Concatenator.MeterInterface$o[9].channel utilization:last 0.0015487403090041
attr recordingmode last
attr source timeavg(channelBusy)
par DNP3NetworkTopology.meter[10].interface$o.channel typename "\"ned.DatarateChannel\""
par DNP3NetworkTopology.meter[10].interface$o.channel disabled false
attr mutable ""
par DNP3NetworkTopology.meter[10].interface$o.channel delay 0.002s
attr mutable ""
attr unit s
par DNP3NetworkTopology.meter[10].interface$o.channel datarate 65000bps
attr mutable ""
attr unit bps
par DNP3NetworkTopology.meter[10].interface$o.channel ber 0
attr mutable ""
par DNP3NetworkTopology.meter[10].interface$o.channel per 0
attr mutable ""
scalar DNP3NetworkTopology.meter[10].interface$o.channel packetsDiscarded:count 1
attr interpolationmode none
attr recordingmode count
attr source constant1(messageDiscarded)
scalar DNP3NetworkTopology.meter[10].interface$o.channel packets:count 59
attr interpolationmode none
attr recordingmode count
attr source constant1(messageSent)
scalar DNP3NetworkTopology.meter[10].interface$o.channel packetBytes:sum 14500
attr interpolationmode none
attr recordingmode sum
attr source packetBytes(messageSent)
attr unit B
scalar DNP3NetworkTopology.meter[10].interface$o.channel throughput:last 399.43557210835
attr recordingmode last
attr source sumPerDuration(packetBits(messageSent))
attr unit bps
scalar DNP3NetworkTopology.meter[10].interface$o.channel utilization:last 0.0061450115993917
attr recordingmode last
attr source timeavg(channelBusy)
par DNP3NetworkTopology.Concatenator.MeterInterface$o[10].channel typename "\"ned.DatarateChannel\""
par DNP3NetworkTopology.Concatenator.MeterInterface$o[10].channel disabled false
attr mutable ""
par DNP3NetworkTopology.Concatenator.MeterInterface$o[10].channel delay 0.002s
attr mutable ""
attr unit s
par DNP3NetworkTopology.Concatenator.MeterInterface$o[10].channel datarate 65000bps
attr mutable ""
attr unit bps
par DNP3NetworkTopology.Concatenator.MeterInterface$o[10].channel ber 0
attr mutable ""
par DNP3NetworkTopology.Concatenator.MeterInterface$o[10].channel per 0
attr mutable ""
scalar DNP3NetworkTopology.Concatenator.MeterInterface$o[10].channel packetsDiscarded:count 1
attr interpolationmode none
attr recordingmode count
attr source constant1(messageDiscarded)
scalar DNP3NetworkTopology.Concatenator.MeterInterface$o[10].channel packets:count 59
attr interpolationmode none
attr recordingmode count
attr source constant1(messageSent)
scalar DNP3NetworkTopology.Concatenator.MeterInterface$o[10].channel packetBytes:sum 3654
attr interpolationmode none
attr recordingmode sum
attr source packetBytes(messageSent)
attr unit B
scalar DNP3NetworkTopology.Concatenator.MeterInterface$o[10].channel throughput:last 100.66093171623
attr recordingmode last
attr source sumPerDuration(packetBits(messageSent))
attr unit bps
scalar DNP3NetworkTopology.Concatenator.MeterInterface$o[10].channel utilization:last 0.001548591652054
attr recordingmode last
attr source timeavg(channelBusy)
par DNP3NetworkTopology.meter[11].interface$o.channel typename "\"ned.DatarateChannel\""
par DNP3NetworkTopology.meter[11].interface$o.channel disabled false
attr mutable ""
par DNP3NetworkTopology.meter[11].interface$o.channel delay 0.002s
attr mutable ""
attr unit s
par DNP3NetworkTopology.meter[11].interface$o.channel datarate 65000bps
attr mutable ""
attr unit bps
par DNP3NetworkTopology.meter[11].interface$o.channel ber 0
attr mutable ""
par DNP3NetworkTopology.meter[11].interface$o.channel per 0
attr mutable ""
scalar DNP3NetworkTopology.meter[11].interface$o.channel packetsDiscarded:count 1
attr interpolationmode none
attr recordingmode count
attr source constant1(messageDiscarded)
scalar DNP3NetworkTopology.meter[11].interface$o.channel packets:count 59
attr interpolationmode none
attr recordingmode count
attr source constant1(messageSent)
scalar DNP3NetworkTopology.meter[11].interface$o.channel packetBytes:sum 14500
attr interpolationmode none
attr recordingmode sum
attr source packetBytes(messageSent)
attr unit B
scalar DNP3NetworkTopology.meter[11].interface$o.channel throughput:last 399.39723594203
attr recordingmode last
attr source sumPerDuration(packetBits(messageSent))
attr unit bps
scalar DNP3NetworkTopology.meter[11].interface$o.channel utilization:last 0.0061444218412098
attr recordingmode last
attr source timeavg(channelBusy)
par DNP3NetworkTopology.Concatenator.MeterInterface$o[11].channel typename "\"ned.DatarateChannel\""
par DNP3NetworkTopology.Concatenator.MeterInterface$o[11].channel disabled false
attr mutable ""
par DNP3NetworkTopology.Concatenator.MeterInterface$o[11].channel delay 0.002s
attr mutable ""
attr unit s
par DNP3NetworkTopology.Concatenator.MeterInterface$o[11].channel datarate 65000bps
attr mutable ""
attr unit bps
par DNP3NetworkTopology.Concatenator.MeterInterface$o[11].channel ber 0
attr mutable ""
par DNP3NetworkTopology.Concatenator.MeterInterface$o[11].channel per 0
attr mutable ""
scalar DNP3NetworkTopology.Concatenator.MeterInterface$o[11].channel packetsDiscarded:count 1
attr interpolationmode none
attr recordingmode count
attr source constant1(messageDiscarded)
scalar DNP3NetworkTopology.Concatenator.MeterInterface$o[11].channel packets:count 59
attr interpolationmode none
attr recordingmode count
attr source constant1(messageSent)
scalar DNP3NetworkTopology.Concatenator.MeterInterface$o[11].channel packetBytes:sum 3654
attr interpolationmode none
attr recordingmode sum
attr source packetBytes(messageSent)
attr unit B
scalar DNP3NetworkTopology.Concatenator.MeterInterface$o[11].channel throughput:last 100.65127039433
attr recordingmode last
attr source sumPerDuration(packetBits(messageSent))
attr unit bps
scalar DNP3NetworkTopology.Concatenator.MeterInterface$o[11].channel utilization:last 0.0015484430236391
attr recordingmode last
attr source timeavg(channelBusy)
par DNP3NetworkTopology.meter[12].interface$o.channel typename "\"ned.DatarateChannel\""
par DNP3NetworkTopology.meter[12].interface$o.channel disabled false
attr mutable ""
par DNP3NetworkTopology.meter[12].interface$o.channel delay 0.002s
attr mutable ""
attr unit s
par DNP3NetworkTopology.meter[12].interface$o.channel datarate 65000bps
attr mutable ""
attr unit bps
par DNP3NetworkTopology.meter[12].interface$o.channel ber 0
attr mutable ""
par DNP3NetworkTopology.meter[12].interface$o.channel per 0
attr mutable ""
scalar DNP3NetworkTopology.meter[12].interface$o.channel packetsDiscarded:count 1
attr interpolationmode none
attr recordingmode count
attr source constant1(messageDiscarded)
scalar DNP3NetworkTopology.meter[12].interface$o.channel packets:count 59
attr interpolationmode none
attr recordingmode count
attr source constant1(messageSent)
scalar DNP3NetworkTopology.meter[12].interface$o.channel packetBytes:sum 14500
attr interpolationmode none
attr recordingmode sum
attr source packetBytes(messageSent)
attr unit B
scalar DNP3NetworkTopology.meter[12].interface$o.channel throughput:last 399.35890713369
attr recordingmode last
attr source sumPerDuration(packetBits(messageSent))
attr unit bps
scalar DNP3NetworkTopology.meter[12].interface$o.channel utilization:last 0.0061438321962193
attr recordingmode last
attr source timeavg(channelBusy)
par DNP3NetworkTopology.Concatenator.MeterInterface$o[12].channel typename "\"ned.DatarateChannel\""
par DNP3NetworkTopology.Concatenator.MeterInterface$o[12].channel disabled false
attr mutable ""
par DNP3NetworkTopology.Concatenator.MeterInterface$o[12].channel delay 0.002s
attr mutable ""
attr unit s
par DNP3NetworkTopology.Concatenator.MeterInterface$o[12].channel datarate 65000bps
attr mutable ""
attr unit bps
par DNP3NetworkTopology.Concatenator.MeterInterface$o[12].channel ber 0
attr mutable ""
par DNP3NetworkTopology.Concatenator.MeterInterface$o[12].channel per 0
attr mutable ""
scalar DNP3NetworkTopology.Concatenator.MeterInterface$o[12].channel packetsDiscarded:count 1
attr interpolationmode none
attr recordingmode count
attr source constant1(messageDiscarded)
scalar DNP3NetworkTopology.Concatenator.MeterInterface$o[12].channel packets:count 59
attr interpolationmode none
attr recordingmode count
attr source constant1(messageSent)
scalar DNP3NetworkTopology.Concatenator.MeterInterface$o[12].channel packetBytes:sum 3654
attr interpolationmode none
attr recordingmode sum
attr source packetBytes(messageSent)
attr unit B
scalar DNP3NetworkTopology.Concatenator.MeterInterface$o[12].channel throughput:last 100.6416109268
attr recordingmode last
attr source sumPerDuration(packetBits(messageSent))
attr unit bps
scalar DNP3NetworkTopology.Concatenator.MeterInterface$o[12].channel utilization:last 0.0015482944237511
attr recordingmode last
attr source timeavg(channelBusy)
par DNP3NetworkTopology.meter[13].interface$o.channel typename "\"ned.DatarateChannel\""
par DNP3NetworkTopology.meter[13].interface$o.channel disabled false
attr mutable ""
par DNP3NetworkTopology.meter[13].interface$o.channel delay 0.002s
attr mutable ""
attr unit s
par DNP3NetworkTopology.meter[13].interface$o.channel datarate 65000bps
attr mutable ""
attr unit bps
par DNP3NetworkTopology.meter[13].interface$o.channel ber 0
attr mutable ""
par DNP3NetworkTopology.meter[13].interface$o.channel per 0
attr mutable ""
scalar DNP3NetworkTopology.meter[13].interface$o.channel packetsDiscarded:count 1
attr interpolationmode none
attr recordingmode count
attr source constant1(messageDiscarded)
scalar DNP3NetworkTopology.meter[13].interface$o.channel packets:count 59
attr interpolationmode none
attr recordingmode count
attr source constant1(messageSent)
scalar DNP3NetworkTopology.meter[13].interface$o.channel packetBytes:sum 14500
attr interpolationmode none
attr recordingmode sum
attr source packetBytes(messageSent)
attr unit B
scalar DNP3NetworkTopology.meter[13].interface$o.channel throughput:last 399.32058568123
attr recordingmode last
attr source sumPerDuration(packetBits(messageSent))
attr unit bps
scalar DNP3NetworkTopology.meter[13].interface$o.channel utilization:last 0.0061432426643876
attr recordingmode last
attr source timeavg(channelBusy)
par DNP3NetworkTopology.Concatenator.MeterInterface$o[13].channel typename "\"ned.DatarateChannel\""
par DNP3NetworkTopology.Concatenator.MeterInterface$o[13].channel disabled false
attr mutable ""
par DNP3NetworkTopology.Concatenator.MeterInterface$o[13].channel delay 0.002s
attr mutable ""
attr unit s
par DNP3NetworkTopology.Concatenator.MeterInterface$o[13].channel datarate 65000bps
attr mutable ""
attr unit bps
par DNP3NetworkTopology.Concatenator.MeterInterface$o[13].channel ber 0
attr mutable ""
par DNP3NetworkTopology.Concatenator.MeterInterface$o[13].channel per 0
attr mutable ""
scalar DNP3NetworkTopology.Concatenator.MeterInterface$o[13].channel packetsDiscarded:count 1
attr interpolationmode none
attr recordingmode count
attr source constant1(messageDiscarded)
scalar DNP3NetworkTopology.Concatenator.MeterInterface$o[13].channel packets:count 59
attr interpolationmode none
attr recordingmode count
attr source constant1(messageSent)
scalar DNP3NetworkTopology.Concatenator.MeterInterface$o[13].channel packetBytes:sum 3654
attr interpolationmode none
attr recordingmode sum
attr source packetBytes(messageSent)
attr unit B
scalar DNP3NetworkTopology.Concatenator.MeterInterface$o[13].channel throughput:last 100.63195331314
attr recordingmode last
attr source sumPerDuration(packetBits(messageSent))
attr unit bps
scalar DNP3NetworkTopology.Concatenator.MeterInterface$o[13].channel utilization:last 0.0015481458523818
attr recordingmode last
attr source timeavg(channelBusy)
par DNP3NetworkTopology.meter[14].interface$o.channel typename "\"ned.DatarateChannel\""
par DNP3NetworkTopology.meter[14].interface$o.channel disabled false
attr mutable ""
par DNP3NetworkTopology.meter[14].interface$o.channel delay 0.002s
attr mutable ""
attr unit s
par DNP3NetworkTopology.meter[14].interface$o.channel datarate 65000bps
attr mutable ""
attr unit bps
par DNP3NetworkTopology.meter[14].interface$o.channel ber 0
attr mutable ""
par DNP3NetworkTopology.meter[14].interface$o.channel per 0
attr mutable ""
scalar DNP3NetworkTopology.meter[14].interface$o.channel packetsDiscarded:count 1
attr interpolationmode none
attr recordingmode count
attr source constant1(messageDiscarded)
scalar DNP3NetworkTopology.meter[14].interface$o.channel packets:count 59
attr interpolationmode none
attr recordingmode count
attr source constant1(messageSent)
scalar DNP3NetworkTopology.meter[14].interface$o.channel packetBytes:sum 14500
attr interpolationmode none
attr recordingmode sum
attr source packetBytes(messageSent)
attr unit B
scalar DNP3NetworkTopology.meter[14].interface$o.channel throughput:last 399.28227158251
attr recordingmode last
attr source sumPerDuration(packetBits(messageSent))
attr unit bps
scalar DNP3NetworkTopology.meter[14].interface$o.channel utilization:last 0.0061426532456823
attr recordingmode last
attr source timeavg(channelBusy)
par DNP3NetworkTopology.Concatenator.MeterInterface$o[14].channel typename "\"ned.DatarateChannel\""
par DNP3NetworkTopology.Concatenator.MeterInterface$o[14].channel disabled false
attr mutable ""
par DNP3NetworkTopology.Concatenator.MeterInterface$o[14].channel delay 0.002s
attr mutable ""
attr unit s
par DNP3NetworkTopology.Concatenator.MeterInterface$o[14].channel datarate 65000bps
attr mutable ""
attr unit bps
par DNP3NetworkTopology.Concatenator.MeterInterface$o[14].channel ber 0
attr mutable ""
par DNP3NetworkTopology.Concatenator.MeterInterface$o[14].channel per 0
attr mutable ""
scalar DNP3NetworkTopology.Concatenator.MeterInterface$o[14].channel packetsDiscarded:count 1
attr interpolationmode none
attr recordingmode count
attr source constant1(messageDiscarded)
scalar DNP3NetworkTopology.Concatenator.MeterInterface$o[14].channel packets:count 59
attr interpolationmode none
attr recordingmode count
attr source constant1(messageSent)
scalar DNP3NetworkTopology.Concatenator.MeterInterface$o[14].channel packetBytes:sum 3654
attr interpolationmode none
attr recordingmode sum
attr source packetBytes(messageSent)
attr unit B
scalar DNP3NetworkTopology.Concatenator.MeterInterface$o[14].channel throughput:last 100.62229755279
attr recordingmode last
attr source sumPerDuration(packetBits(messageSent))
attr unit bps
scalar DNP3NetworkTopology.Concatenator.MeterInterface$o[14].channel utilization:last 0.001547997309523
attr recordingmode last
attr source timeavg(channelBusy)
par DNP3NetworkTopology.meter[15].interface$o.channel typename "\"ned.DatarateChannel\""
par DNP3NetworkTopology.meter[15].interface$o.channel disabled false
attr mutable ""
par DNP3NetworkTopology.meter[15].interface$o.channel delay 0.002s
attr mutable ""
attr unit s
par DNP3NetworkTopology.meter[15].interface$o.channel datarate 65000bps
attr mutable ""
attr unit bps
par DNP3NetworkTopology.meter[15].interface$o.channel ber 0
attr mutable ""
par DNP3NetworkTopology.meter[15].interface$o.channel per 0
attr mutable ""
scalar DNP3NetworkTopology.meter[15].interface$o.channel packetsDiscarded:count 1
attr interpolationmode none
attr recordingmode count
attr source constant1(messageDiscarded)
scalar DNP3NetworkTopology.meter[15].interface$o.channel packets:count 59
attr interpolationmode none
attr recordingmode count
attr source constant1(messageSent)
scalar DNP3NetworkTopology.meter[15].interface$o.channel packetBytes:sum 14500
attr interpolationmode none
attr recordingmode sum
attr source packetBytes(messageSent)
attr unit B
scalar DNP3NetworkTopology.meter[15].interface$o.channel throughput:last 399.24396483542
attr recordingmode last
attr source sumPerDuration(packetBits(messageSent))
attr unit bps
scalar DNP3NetworkTopology.meter[15].interface$o.channel utilization:last 0.0061420639400706
attr recordingmode last
attr source timeavg(channelBusy)
par DNP3NetworkTopology.Concatenator.MeterInterface$o[15].channel typename "\"ned.DatarateChannel\""
par DNP3NetworkTopology.Concatenator.MeterInterface$o[15].channel disabled false
attr mutable ""
par DNP3NetworkTopology.Concatenator.MeterInterface$o[15].channel delay 0.002s
attr mutable ""
attr unit s
par DNP3NetworkTopology.Concatenator.MeterInterface$o[15].channel datarate 65000bps
attr mutable ""
attr unit bps
par DNP3NetworkTopology.Concatenator.MeterInterface$o[15].channel ber 0
attr mutable ""
par DNP3NetworkTopology.Concatenator.MeterInterface$o[15].channel per 0
attr mutable ""
scalar DNP3NetworkTopology.Concatenator.MeterInterface$o[15].channel packetsDiscarded:count 1
attr interpolationmode none
attr recordingmode count
attr source constant1(messageDiscarded)
scalar DNP3NetworkTopology.Concatenator.MeterInterface$o[15].channel packets:count 59
attr interpolationmode none
attr recordingmode count
attr source constant1(messageSent)
scalar DNP3NetworkTopology.Concatenator.MeterInterface$o[15].channel packetBytes:sum 3654
attr interpolationmode none
attr recordingmode sum
attr source packetBytes(messageSent)
attr unit B
scalar DNP3NetworkTopology.Concatenator.MeterInterface$o[15].channel throughput:last 100.61264364523
attr recordingmode last
attr source sumPerDuration(packetBits(messageSent))
attr unit bps
scalar DNP3NetworkTopology.Concatenator.MeterInterface$o[15].channel utilization:last 0.0015478487951665
attr recordingmode last
attr source timeavg(channelBusy)
par DNP3NetworkTopology.meter[16].interface$o.channel typename "\"ned.DatarateChannel\""
par DNP3NetworkTopology.meter[16].interface$o.channel disabled false
attr mutable ""
par DNP3NetworkTopology.meter[16].interface$o.channel delay 0.002s
attr mutable ""
attr unit s
par DNP3NetworkTopology.meter[16].interface$o.channel datarate 65000bps
attr mutable ""
attr unit bps
par DNP3NetworkTopology.meter[16].interface$o.channel ber 0
attr mutable ""
par DNP3NetworkTopology.meter[16].interface$o.channel per 0
attr mutable ""
scalar DNP3NetworkTopology.meter[16].interface$o.channel packetsDiscarded:count 1
attr interpolationmode none
attr recordingmode count
attr source constant1(messageDiscarded)
scalar DNP3NetworkTopology.meter[16].interface$o.channel packets:count 59
attr interpolationmode none
attr recordingmode count
attr source constant1(messageSent)
scalar DNP3NetworkTopology.meter[16].interface$o.channel packetBytes:sum 14500
attr interpolationmode none
attr recordingmode sum
attr source packetBytes(messageSent)
attr unit B
scalar DNP3NetworkTopology.meter[16].interface$o.channel throughput:last 399.20566543786
attr recordingmode last
attr source sumPerDuration(packetBits(messageSent))
attr unit bps
scalar DNP3NetworkTopology.meter[16].interface$o.channel utilization:last 0.0061414747475202
attr recordingmode last
attr source timeavg(channelBusy)
par DNP3NetworkTopology.Concatenator.MeterInterface$o[16].channel typename "\"ned.DatarateChannel\""
par DNP3NetworkTopology.Concatenator.MeterInterface$o[16].channel disabled false
attr mutable ""
par DNP3NetworkTopology.Concatenator.MeterInterface$o[16].channel delay 0.002s
attr mutable ""
attr unit s
par DNP3NetworkTopology.Concatenator.MeterInterface$o[16].channel datarate 65000bps
attr mutable ""
attr unit bps
par DNP3NetworkTopology.Concatenator.MeterInterface$o[16].channel ber 0
attr mutable ""
par DNP3NetworkTopology.Concatenator.MeterInterface$o[16].channel per 0
attr mutable ""
scalar DNP3NetworkTopology.Concatenator.MeterInterface$o[16].channel packetsDiscarded:count 1
attr interpolationmode none
attr recordingmode count
attr source constant1(messageDiscarded)
scalar DNP3NetworkTopology.Concatenator.MeterInterface$o[16].channel packets:count 59
attr interpolationmode none
attr recordingmode count
attr source constant1(messageSent)
scalar DNP3NetworkTopology.Concatenator.MeterInterface$o[16].channel packetBytes:sum 3654
attr interpolationmode none
attr recordingmode sum
attr source packetBytes(messageSent)
attr unit B
scalar DNP3NetworkTopology.Concatenator.MeterInterface$o[16].channel throughput:last 100.60299158992
attr recordingmode last
attr source sumPerDuration(packetBits(messageSent))
attr unit bps
scalar DNP3NetworkTopology.Concatenator.MeterInterface$o[16].channel utilization:last 0.0015477003093042
attr recordingmode last
attr source timeavg(channelBusy)
par DNP3NetworkTopology.meter[17].interface$o.channel typename "\"ned.DatarateChannel\""
par DNP3NetworkTopology.meter[17].interface$o.channel disabled false
attr mutable ""
par DNP3NetworkTopology.meter[17].interface$o.channel delay 0.002s
attr mutable ""
attr unit s
par DNP3NetworkTopology.meter[17].interface$o.channel datarate 65000bps
attr mutable ""
attr unit bps
par DNP3NetworkTopology.meter[17].interface$o.channel ber 0
attr mutable ""
par DNP3NetworkTopology.meter[17].interface$o.channel per 0
attr mutable ""
scalar DNP3NetworkTopology.meter[17].interface$o.channel packetsDiscarded:count 1
attr interpolationmode none
attr recordingmode count
attr source constant1(messageDiscarded)
scalar DNP3NetworkTopology.meter[17].interface$o.channel packets:count 59
attr interpolationmode none
attr recordingmode count
attr source constant1(messageSent)
scalar DNP3NetworkTopology.meter[17].interface$o.channel packetBytes:sum 14500
attr interpolationmode none
attr recordingmode sum
attr source packetBytes(messageSent)
attr unit B
scalar DNP3NetworkTopology.meter[17].interface$o.channel throughput:last 399.16737338769
attr recordingmode last
attr source sumPerDuration(packetBits(messageSent))
attr unit bps
scalar DNP3NetworkTopology.meter[17].interface$o.channel utilization:last 0.0061408856679983
attr recordingmode last
attr source timeavg(channelBusy)
par DNP3NetworkTopology.Concatenator.MeterInterface$o[17].channel typename "\"ned.DatarateChannel\""
par DNP3NetworkTopology.Concatenator.MeterInterface$o[17].channel disabled false
attr mutable ""
par DNP3NetworkTopology.Concatenator.MeterInterface$o[17].channel delay 0.002s
attr mutable ""
attr unit s
par DNP3NetworkTopology.Concatenator.MeterInterface$o[17].channel datarate 65000bps
attr mutable ""
attr unit bps
par DNP3NetworkTopology.Concatenator.MeterInterface$o[17].channel ber 0
attr mutable ""
par DNP3NetworkTopology.Concatenator.MeterInterface$o[17].channel per 0
attr mutable ""
scalar DNP3NetworkTopology.Concatenator.MeterInterface$o[17].channel packetsDiscarded:count 1
attr interpolationmode none
attr recordingmode count
attr source constant1(messageDiscarded)
scalar DNP3NetworkTopology.Concatenator.MeterInterface$o[17].channel packets:count 59
attr interpolationmode none
attr recordingmode count
attr source constant1(messageSent)
scalar DNP3NetworkTopology.Concatenator.MeterInterface$o[17].channel packetBytes:sum 3654
attr interpolationmode none
attr recordingmode sum
attr source packetBytes(messageSent)
attr unit B
scalar DNP3NetworkTopology.Concatenator.MeterInterface$o[17].channel throughput:last 100.59334138633
attr recordingmode last
attr source sumPerDuration(packetBits(messageSent))
attr unit bps
scalar DNP3NetworkTopology.Concatenator.MeterInterface$o[17].channel utilization:last 0.0015475518519277
attr recordingmode last
attr source timeavg(channelBusy)
par DNP3NetworkTopology.meter[18].interface$o.channel typename "\"ned.DatarateChannel\""
par DNP3NetworkTopology.meter[18].interface$o.channel disabled false
attr mutable ""
par DNP3NetworkTopology.meter[18].interface$o.channel delay 0.002s
attr mutable ""
attr unit s
par DNP3NetworkTopology.meter[18].interface$o.channel datarate 65000bps
attr mutable ""
attr unit bps
par DNP3NetworkTopology.meter[18].interface$o.channel ber 0
attr mutable ""
par DNP3NetworkTopology.meter[18].interface$o.channel per 0
attr mutable ""
scalar DNP3NetworkTopology.meter[18].interface$o.channel packetsDiscarded:count 1
attr interpolationmode none
attr recordingmode count
attr source constant1(messageDiscarded)
scalar DNP3NetworkTopology.meter[18].interface$o.channel packets:count 59
attr interpolationmode none
attr recordingmode count
attr source constant1(messageSent)
scalar DNP3NetworkTopology.meter[18].interface$o.channel packetBytes:sum 14500
attr interpolationmode none
attr recordingmode sum
attr source packetBytes(messageSent)
attr unit B
scalar DNP3NetworkTopology.meter[18].interface$o.channel throughput:last 399.12908868282
attr recordingmode last
attr source sumPerDuration(packetBits(messageSent))
attr unit bps
scalar DNP3NetworkTopology.meter[18].interface$o.channel utilization:last 0.0061402967014726
attr recordingmode last
attr source timeavg(channelBusy)
par DNP3NetworkTopology.Concatenator.MeterInterface$o[18].channel typename "\"ned.DatarateChannel\""
par DNP3NetworkTopology.Concatenator.MeterInterface$o[18].channel disabled false
attr mutable ""
par DNP3NetworkTopology.Concatenator.MeterInterface$o[18].channel delay 0.002s
attr mutable ""
attr unit s
par DNP3NetworkTopology.Concatenator.MeterInterface$o[18].channel datarate 65000bps
attr mutable ""
attr unit bps
par DNP3NetworkTopology.Concatenator.MeterInterface$o[18].channel ber 0
attr mutable ""
par DNP3NetworkTopology.Concatenator.MeterInterface$o[18].channel per 0
attr mutable ""
scalar DNP3NetworkTopology.Concatenator.MeterInterface$o[18].channel packetsDiscarded:count 1
attr interpolationmode none
attr recordingmode count
attr source constant1(messageDiscarded)
scalar DNP3NetworkTopology.Concatenator.MeterInterface$o[18].channel packets:count 59
attr interpolationmode none
attr recordingmode count
attr source constant1(messageSent)
scalar DNP3NetworkTopology.Concatenator.MeterInterface$o[18].channel packetBytes:sum 3654
attr interpolationmode none
attr recordingmode sum
attr source packetBytes(messageSent)
attr unit B
scalar DNP3NetworkTopology.Concatenator.MeterInterface$o[18].channel throughput:last 100.58369303393
attr recordingmode last
attr source sumPerDuration(packetBits(messageSent))
attr unit bps
scalar DNP3NetworkTopology.Concatenator.MeterInterface$o[18].channel utilization:last 0.001547403423029
attr recordingmode last
attr source timeavg(channelBusy)
par DNP3NetworkTopology.meter[19].interface$o.channel typename "\"ned.DatarateChannel\""
par DNP3NetworkTopology.meter[19].interface$o.channel disabled false
attr mutable ""
par DNP3NetworkTopology.meter[19].interface$o.channel delay 0.002s
attr mutable ""
attr unit s
par DNP3NetworkTopology.meter[19].interface$o.channel datarate 65000bps
attr mutable ""
attr unit bps
par DNP3NetworkTopology.meter[19].interface$o.channel ber 0
attr mutable ""
par DNP3NetworkTopology.meter[19].interface$o.channel per 0
attr mutable ""
scalar DNP3NetworkTopology.meter[19].interface$o.channel packetsDiscarded:count 1
attr interpolationmode none
attr recordingmode count
attr source constant1(messageDiscarded)
scalar DNP3NetworkTopology.meter[19].interface$o.channel packets:count 59
attr interpolationmode none
attr recordingmode count
attr source constant1(messageSent)
scalar DNP3NetworkTopology.meter[19].interface$o.channel packetBytes:sum 14500
attr interpolationmode none
attr recordingmode sum
attr source packetBytes(messageSent)
attr unit B
scalar DNP3NetworkTopology.meter[19].interface$o.channel throughput:last 399.09081132112
attr recordingmode last
attr source sumPerDuration(packetBits(messageSent))
attr unit bps
scalar DNP3NetworkTopology.meter[19].interface$o.channel utilization:last 0.0061397078479105
attr recordingmode last
attr source timeavg(channelBusy)
par DNP3NetworkTopology.Concatenator.MeterInterface$o[19].channel typename "\"ned.DatarateChannel\""
par DNP3NetworkTopology.Concatenator.MeterInterface$o[19].channel disabled false
attr mutable ""
par DNP3NetworkTopology.Concatenator.MeterInterface$o[19].channel delay 0.002s
attr mutable ""
attr unit s
par DNP3NetworkTopology.Concatenator.MeterInterface$o[19].channel datarate 65000bps
attr mutable ""
attr unit bps
par DNP3NetworkTopology.Concatenator.MeterInterface$o[19].channel ber 0
attr mutable ""
par DNP3NetworkTopology.Concatenator.MeterInterface$o[19].channel per 0
attr mutable ""
scalar DNP3NetworkTopology.Concatenator.MeterInterface$o[19].channel packetsDiscarded:count 1
attr interpolationmode none
attr recordingmode count
attr source constant1(messageDiscarded)
scalar DNP3NetworkTopology.Concatenator.MeterInterface$o[19].channel packets:count 59
attr interpolationmode none
attr recordingmode count
attr source constant1(messageSent)
scalar DNP3NetworkTopology.Concatenator.MeterInterface$o[19].channel packetBytes:sum 3654
attr interpolationmode none
attr recordingmode sum
attr source packetBytes(messageSent)
attr unit B
scalar DNP3NetworkTopology.Concatenator.MeterInterface$o[19].channel throughput:last 100.57404653218
attr recordingmode last
attr source sumPerDuration(packetBits(messageSent))
attr unit bps
scalar DNP3NetworkTopology.Concatenator.MeterInterface$o[19].channel utilization:last 0.0015472550225998
attr recordingmode last
attr source timeavg(channelBusy)
par DNP3NetworkTopology.meter[20].interface$o.channel typename "\"ned.DatarateChannel\""
par DNP3NetworkTopology.meter[20].interface$o.channel disabled false
attr mutable ""
par DNP3NetworkTopology.meter[20].interface$o.channel delay 0.002s
attr mutable ""
attr unit s
par DNP3NetworkTopology.meter[20].interface$o.channel datarate 65000bps
attr mutable ""
attr unit bps
par DNP3NetworkTopology.meter[20].interface$o.channel ber 0
attr mutable ""
par DNP3NetworkTopology.meter[20].interface$o.channel per 0
attr mutable ""
scalar DNP3NetworkTopology.meter[20].interface$o.channel packetsDiscarded:count 1
attr interpolationmode none
attr recordingmode count
attr source constant1(messageDiscarded)
scalar DNP3NetworkTopology.meter[20].interface$o.channel packets:count 59
attr interpolationmode none
attr recordingmode count
attr source constant1(messageSent)
scalar DNP3NetworkTopology.meter[20].interface$o.channel packetBytes:sum 14500
attr interpolationmode none
attr recordingmode sum
attr source packetBytes(messageSent)
attr unit B
scalar DNP3NetworkTopology.meter[20].interface$o.channel throughput:last 399.05254130048
attr recordingmode last
attr source sumPerDuration(packetBits(messageSent))
attr unit bps
scalar DNP3NetworkTopology.meter[20].interface$o.channel utilization:last 0.0061391191072795
attr recordingmode last
attr source timeavg(channelBusy)
par DNP3NetworkTopology.Concatenator.MeterInterface$o[20].channel typename "\"ned.DatarateChannel\""
par DNP3NetworkTopology.Concatenator.MeterInterface$o[20].channel disabled false
attr mutable ""
par DNP3NetworkTopology.Concatenator.MeterInterface$o[20].channel delay 0.002s
attr mutable ""
attr unit s
par DNP3NetworkTopology.Concatenator.MeterInterface$o[20].channel datarate 65000bps
attr mutable ""
attr unit bps
par DNP3NetworkTopology.Concatenator.MeterInterface$o[20].channel ber 0
attr mutable ""
par DNP3NetworkTopology.Concatenator.MeterInterface$o[20].channel per 0
attr mutable ""
scalar DNP3NetworkTopology.Concatenator.MeterInterface$o[20].channel packetsDiscarded:count 1
attr interpolationmode none
attr recordingmode count
attr source constant1(messageDiscarded)
scalar DNP3NetworkTopology.Concatenator.MeterInterface$o[20].channel packets:count 59
attr interpolationmode none
attr recordingmode count
attr source constant1(messageSent)
scalar DNP3NetworkTopology.Concatenator.MeterInterface$o[20].channel packetBytes:sum 3654
attr interpolationmode none
attr recordingmode sum
attr source packetBytes(messageSent)
attr unit B
scalar DNP3NetworkTopology.Concatenator.MeterInterface$o[20].channel throughput:last 100.56440188056
attr recordingmode last
attr source sumPerDuration(packetBits(messageSent))
attr unit bps
scalar DNP3NetworkTopology.Concatenator.MeterInterface$o[20].channel utilization:last 0.0015471066506319
attr recordingmode last
attr source timeavg(channelBusy)
par DNP3NetworkTopology.meter[21].interface$o.channel typename "\"ned.DatarateChannel\""
par DNP3NetworkTopology.meter[21].interface$o.channel disabled false
attr mutable ""
par DNP3NetworkTopology.meter[21].interface$o.channel delay 0.002s
attr mutable ""
attr unit s
par DNP3NetworkTopology.meter[21].interface$o.channel datarate 65000bps
attr mutable ""
attr unit bps
par DNP3NetworkTopology.meter[21].interface$o.channel ber 0
attr mutable ""
par DNP3NetworkTopology.meter[21].interface$o.channel per 0
attr mutable ""
scalar DNP3NetworkTopology.meter[21].interface$o.channel packetsDiscarded:count 1
attr interpolationmode none
attr recordingmode count
attr source constant1(messageDiscarded)
scalar DNP3NetworkTopology.meter[21].interface$o.channel packets:count 59
attr interpolationmode none
attr recordingmode count
attr source constant1(messageSent)
scalar DNP3NetworkTopology.meter[21].interface$o.channel packetBytes:sum 14500
attr interpolationmode none
attr recordingmode sum
attr source packetBytes(messageSent)
attr unit B
scalar DNP3NetworkTopology.meter[21].interface$o.channel throughput:last 399.0142786188
attr recordingmode last
attr source sumPerDuration(packetBits(messageSent))
attr unit bps
scalar DNP3NetworkTopology.meter[21].interface$o.channel utilization:last 0.0061385304795471
attr recordingmode last
attr source timeavg(channelBusy)
par DNP3NetworkTopology.Concatenator.MeterInterface$o[21].channel typename "\"ned.DatarateChannel\""
par DNP3NetworkTopology.Concatenator.MeterInterface$o[21].channel disabled false
attr mutable ""
par DNP3NetworkTopology.Concatenator.MeterInterface$o[21].channel delay 0.002s
attr mutable ""
attr unit s
par DNP3NetworkTopology.Concatenator.MeterInterface$o[21].channel datarate 65000bps
attr mutable ""
attr unit bps
par DNP3NetworkTopology.Concatenator.MeterInterface$o[21].channel ber 0
attr mutable ""
par DNP3NetworkTopology.Concatenator.MeterInterface$o[21].channel per 0
attr mutable ""
scalar DNP3NetworkTopology.Concatenator.MeterInterface$o[21].channel packetsDiscarded:count 1
attr interpolationmode none
attr recordingmode count
attr source constant1(messageDiscarded)
scalar DNP3NetworkTopology.Concatenator.MeterInterface$o[21].channel packets:count 59
attr interpolationmode none
attr recordingmode count
attr source constant1(messageSent)
scalar DNP3NetworkTopology.Concatenator.MeterInterface$o[21].channel packetBytes:sum 3654
attr interpolationmode none
attr recordingmode sum
attr source packetBytes(messageSent)
attr unit B
scalar DNP3NetworkTopology.Concatenator.MeterInterface$o[21].channel throughput:last 100.55475907853
attr recordingmode last
attr source sumPerDuration(packetBits(messageSent))
attr unit bps
scalar DNP3NetworkTopology.Concatenator.MeterInterface$o[21].channel utilization:last 0.0015469583071171
attr recordingmode last
attr source timeavg(channelBusy)
par DNP3NetworkTopology.meter[22].interface$o.channel typename "\"ned.DatarateChannel\""
par DNP3NetworkTopology.meter[22].interface$o.channel disabled false
attr mutable ""
par DNP3NetworkTopology.meter[22].interface$o.channel delay 0.002s
attr mutable ""
attr unit s
par DNP3NetworkTopology.meter[22].interface$o.channel datarate 65000bps
attr mutable ""
attr unit bps
par DNP3NetworkTopology.meter[22].interface$o.channel ber 0
attr mutable ""
par DNP3NetworkTopology.meter[22].interface$o.channel per 0
attr mutable ""
scalar DNP3NetworkTopology.meter[22].interface$o.channel packetsDiscarded:count 1
attr interpolationmode none
attr recordingmode count
attr source constant1(messageDiscarded)
scalar DNP3NetworkTopology.meter[22].interface$o.channel packets:count 59
attr interpolationmode none
attr recordingmode count
attr source constant1(messageSent)
scalar DNP3NetworkTopology.meter[22].interface$o.channel packetBytes:sum 14500
attr interpolationmode none
attr recordingmode sum
attr source packetBytes(messageSent)
attr unit B
scalar DNP3NetworkTopology.meter[22].interface$o.channel throughput:last 398.97602327395
attr recordingmode last
attr source sumPerDuration(packetBits(messageSent))
attr unit bps
scalar DNP3NetworkTopology.meter[22].interface$o.channel utilization:last 0.0061379419646809
attr recordingmode last
attr source timeavg(channelBusy)
par DNP3NetworkTopology.Concatenator.MeterInterface$o[22].channel typename "\"ned.DatarateChannel\""
par DNP3NetworkTopology.Concatenator.MeterInterface$o[22].channel disabled false
attr mutable ""
par DNP3NetworkTopology.Concatenator.MeterInterface$o[22].channel delay 0.002s
attr mutable ""
attr unit s
par DNP3NetworkTopology.Concatenator.MeterInterface$o[22].channel datarate 65000bps
attr mutable ""
attr unit bps
par DNP3NetworkTopology.Concatenator.MeterInterface$o[22].channel ber 0
attr mutable ""
par DNP3NetworkTopology.Concatenator.MeterInterface$o[22].channel per 0
attr mutable ""
scalar DNP3NetworkTopology.Concatenator.MeterInterface$o[22].channel packetsDiscarded:count 1
attr interpolationmode none
attr recordingmode count
attr source constant1(messageDiscarded)
scalar DNP3NetworkTopology.Concatenator.MeterInterface$o[22].channel packets:count 59
attr interpolationmode none
attr recordingmode count
attr source constant1(messageSent)
scalar DNP3NetworkTopology.Concatenator.MeterInterface$o[22].channel packetBytes:sum 3654
attr interpolationmode none
attr recordingmode sum
attr source packetBytes(messageSent)
attr unit B
scalar DNP3NetworkTopology.Concatenator.MeterInterface$o[22].channel throughput:last 100.54511812555
attr recordingmode last
attr source sumPerDuration(packetBits(messageSent))
attr unit bps
scalar DNP3NetworkTopology.Concatenator.MeterInterface$o[22].channel utilization:last 0.0015468099920473
attr recordingmode last
attr source timeavg(channelBusy)
par DNP3NetworkTopology.meter[23].interface$o.channel typename "\"ned.DatarateChannel\""
par DNP3NetworkTopology.meter[23].interface$o.channel disabled false
attr mutable ""
par DNP3NetworkTopology.meter[23].interface$o.channel delay 0.002s
attr mutable ""
attr unit s
par DNP3NetworkTopology.meter[23].interface$o.channel datarate 65000bps
attr mutable ""
attr unit bps
par DNP3NetworkTopology.meter[23].interface$o.channel ber 0
attr mutable ""
par DNP3NetworkTopology.meter[23].interface$o.channel per 0
attr mutable ""
scalar DNP3NetworkTopology.meter[23].interface$o.channel packetsDiscarded:count 1
attr interpolationmode none
attr recordingmode count
attr source constant1(messageDiscarded)
scalar DNP3NetworkTopology.meter[23].interface$o.channel packets:count 59
attr interpolationmode none
attr recordingmode count
attr source constant1(messageSent)
scalar DNP3NetworkTopology.meter[23].interface$o.channel packetBytes:sum 14500
attr interpolationmode none
attr recordingmode sum
attr source packetBytes(messageSent)
attr unit B
scalar DNP3NetworkTopology.meter[23].interface$o.channel throughput:last 398.93777526384
attr recordingmode last
attr source sumPerDuration(packetBits(messageSent))
attr unit bps
scalar DNP3NetworkTopology.meter[23].interface$o.channel utilization:last 0.0061373535626484
attr recordingmode last
attr source timeavg(channelBusy)
par DNP3NetworkTopology.Concatenator.MeterInterface$o[23].channel typename "\"ned.DatarateChannel\""
par DNP3NetworkTopology.Concatenator.MeterInterface$o[23].channel disabled false
attr mutable ""
par DNP3NetworkTopology.Concatenator.MeterInterface$o[23].channel delay 0.002s
attr mutable ""
attr unit s
par DNP3NetworkTopology.Concatenator.MeterInterface$o[23].channel datarate 65000bps
attr mutable ""
attr unit bps
par DNP3NetworkTopology.Concatenator.MeterInterface$o[23].channel ber 0
attr mutable ""
par DNP3NetworkTopology.Concatenator.MeterInterface$o[23].channel per 0
attr mutable ""
scalar DNP3NetworkTopology.Concatenator.MeterInterface$o[23].channel packetsDiscarded:count 1
attr interpolationmode none
attr recordingmode count
attr source constant1(messageDiscarded)
scalar DNP3NetworkTopology.Concatenator.MeterInterface$o[23].channel packets:count 59
attr interpolationmode none
attr recordingmode count
attr source constant1(messageSent)
scalar DNP3NetworkTopology.Concatenator.MeterInterface$o[23].channel packetBytes:sum 3654
attr interpolationmode none
attr recordingmode sum
attr source packetBytes(messageSent)
attr unit B
scalar DNP3NetworkTopology.Concatenator.MeterInterface$o[23].channel throughput:last 100.5354790211
attr recordingmode last
attr source sumPerDuration(packetBits(messageSent))
attr unit bps
scalar DNP3NetworkTopology.Concatenator.MeterInterface$o[23].channel utilization:last 0.0015466617054142
attr recordingmode last
attr source timeavg(channelBusy)
par DNP3NetworkTopology.meter[24].interface$o.channel typename "\"ned.DatarateChannel\""
par DNP3NetworkTopology.meter[24].interface$o.channel disabled false
attr mutable ""
par DNP3NetworkTopology.meter[24].interface$o.channel delay 0.002s
attr mutable ""
attr unit s
par DNP3NetworkTopology.meter[24].interface$o.channel datarate 65000bps
attr mutable ""
attr unit bps
par DNP3NetworkTopology.meter[24].interface$o.channel ber 0
attr mutable ""
par DNP3NetworkTopology.meter[24].interface$o.channel per 0
attr mutable ""
scalar DNP3NetworkTopology.meter[24].interface$o.channel packetsDiscarded:count 1
attr interpolationmode none
attr recordingmode count
attr source constant1(messageDiscarded)
scalar DNP3NetworkTopology.meter[24].interface$o.channel packets:count 59
attr interpolationmode none
attr recordingmode count
attr source constant1(messageSent)
scalar DNP3NetworkTopology.meter[24].interface$o.channel packetBytes:sum 14500
attr interpolationmode none
attr recordingmode sum
attr source packetBytes(messageSent)
attr unit B
scalar DNP3NetworkTopology.meter[24].interface$o.channel throughput:last 398.89953458635
attr recordingmode last
attr source sumPerDuration(packetBits(messageSent))
attr unit bps
scalar DNP3NetworkTopology.meter[24].interface$o.channel utilization:last 0.0061367652734171
attr recordingmode last
attr source timeavg(channelBusy)
par DNP3NetworkTopology.Concatenator.MeterInterface$o[24].channel typename "\"ned.DatarateChannel\""
par DNP3NetworkTopology.Concatenator.MeterInterface$o[24].channel disabled false
attr mutable ""
par DNP3NetworkTopology.Concatenator.MeterInterface$o[24].channel delay 0.002s
attr mutable ""
attr unit s
par DNP3NetworkTopology.Concatenator.MeterInterface$o[24].channel datarate 65000bps
attr mutable ""
attr unit bps
par DNP3NetworkTopology.Concatenator.MeterInterface$o[24].channel ber 0
attr mutable ""
par DNP3NetworkTopology.Concatenator.MeterInterface$o[24].channel per 0
attr mutable ""
scalar DNP3NetworkTopology.Concatenator.MeterInterface$o[24].channel packetsDiscarded:count 1
attr interpolationmode none
attr recordingmode count
attr source constant1(messageDiscarded)
scalar DNP3NetworkTopology.Concatenator.MeterInterface$o[24].channel packets:count 59
attr interpolationmode none
attr recordingmode count
attr source constant1(messageSent)
scalar DNP3NetworkTopology.Concatenator.MeterInterface$o[24].channel packetBytes:sum 3654
attr interpolationmode none
attr recordingmode sum
attr source packetBytes(messageSent)
attr unit B
scalar DNP3NetworkTopology.Concatenator.MeterInterface$o[24].channel throughput:last 100.52584176465
attr recordingmode last
attr source sumPerDuration(packetBits(messageSent))
attr unit bps
scalar DNP3NetworkTopology.Concatenator.MeterInterface$o[24].channel utilization:last 0.0015465134472098
attr recordingmode last
attr source timeavg(channelBusy)
par DNP3NetworkTopology.meter[25].interface$o.channel typename "\"ned.DatarateChannel\""
par DNP3NetworkTopology.meter[25].interface$o.channel disabled false
attr mutable ""
par DNP3NetworkTopology.meter[25].interface$o.channel delay 0.002s
attr mutable ""
attr unit s
par DNP3NetworkTopology.meter[25].interface$o.channel datarate 65000bps
attr mutable ""
attr unit bps
par DNP3NetworkTopology.meter[25].interface$o.channel ber 0
attr mutable ""
par DNP3NetworkTopology.meter[25].interface$o.channel per 0
attr mutable ""
scalar DNP3NetworkTopology.meter[25].interface$o.channel packetsDiscarded:count 1
attr interpolationmode none
attr recordingmode count
attr source constant1(messageDiscarded)
scalar DNP3NetworkTopology.meter[25].interface$o.channel packets:count 59
attr interpolationmode none
attr recordingmode count
attr source constant1(messageSent)
scalar DNP3NetworkTopology.meter[25].interface$o.channel packetBytes:sum 14500
attr interpolationmode none
attr recordingmode sum
attr source packetBytes(messageSent)
attr unit B
scalar DNP3NetworkTopology.meter[25].interface$o.channel throughput:last 398.86130123937
attr recordingmode last
attr source sumPerDuration(packetBits(messageSent))
attr unit bps
scalar DNP3NetworkTopology.meter[25].interface$o.channel utilization:last 0.0061361770969547
attr recordingmode last
attr source timeavg(channelBusy)
par DNP3NetworkTopology.Concatenator.MeterInterface$o[25].channel typename "\"ned.DatarateChannel\""
par DNP3NetworkTopology.Concatenator.MeterInterface$o[25].channel disabled false
attr mutable ""
par DNP3NetworkTopology.Concatenator.MeterInterface$o[25].channel delay 0.002s
attr mutable ""
attr unit s
par DNP3NetworkTopology.Concatenator.MeterInterface$o[25].channel datarate 65000bps
attr mutable ""
attr unit bps
par DNP3NetworkTopology.Concatenator.MeterInterface$o[25].channel ber 0
attr mutable ""
par DNP3NetworkTopology.Concatenator.MeterInterface$o[25].channel per 0
attr mutable ""
scalar DNP3NetworkTopology.Concatenator.MeterInterface$o[25].channel packetsDiscarded:count 1
attr interpolationmode none
attr recordingmode count
attr source constant1(messageDiscarded)
scalar DNP3NetworkTopology.Concatenator.MeterInterface$o[25].channel packets:count 59
attr interpolationmode none
attr recordingmode count
attr source constant1(messageSent)
scalar DNP3NetworkTopology.Concatenator.MeterInterface$o[25].channel packetBytes:sum 3654
attr interpolationmode none
attr recordingmode sum
attr source packetBytes(messageSent)
attr unit B
scalar DNP3NetworkTopology.Concatenator.MeterInterface$o[25].channel throughput:last 100.51620635566
attr recordingmode last
attr source sumPerDuration(packetBits(messageSent))
attr unit bps
scalar DNP3NetworkTopology.Concatenator.MeterInterface$o[25].channel utilization:last 0.0015463652174258
attr recordingmode last
attr source timeavg(channelBusy)
par DNP3NetworkTopology.meter[26].interface$o.channel typename "\"ned.DatarateChannel\""
par DNP3NetworkTopology.meter[26].interface$o.channel disabled false
attr mutable ""
par DNP3NetworkTopology.meter[26].interface$o.channel delay 0.002s
attr mutable ""
attr unit s
par DNP3NetworkTopology.meter[26].interface$o.channel datarate 65000bps
attr mutable ""
attr unit bps
par DNP3NetworkTopology.meter[26].interface$o.channel ber 0
attr mutable ""
par DNP3NetworkTopology.meter[26].interface$o.channel per 0
attr mutable ""
scalar DNP3NetworkTopology.meter[26].interface$o.channel packetsDiscarded:count 1
attr interpolationmode none
attr recordingmode count
attr source constant1(messageDiscarded)
scalar DNP3NetworkTopology.meter[26].interface$o.channel packets:count 59
attr interpolationmode none
attr recordingmode count
attr source constant1(messageSent)
scalar DNP3NetworkTopology.meter[26].interface$o.channel packetBytes:sum 14500
attr interpolationmode none
attr recordingmode sum
attr source packetBytes(messageSent)
attr unit B
scalar DNP3NetworkTopology.meter[26].interface$o.channel throughput:last 398.8230752208
attr recordingmode last
attr source sumPerDuration(packetBits(messageSent))
attr unit bps
scalar DNP3NetworkTopology.meter[26].interface$o.channel utilization:last 0.0061355890332286
attr recordingmode last
attr source timeavg(channelBusy)
par DNP3NetworkTopology.Concatenator.MeterInterface$o[26].channel typename "\"ned.DatarateChannel\""
par DNP3NetworkTopology.Concatenator.MeterInterface$o[26].channel disabled false
attr mutable ""
par DNP3NetworkTopology.Concatenator.MeterInterface$o[26].channel delay 0.002s
attr mutable ""
attr unit s
par DNP3NetworkTopology.Concatenator.MeterInterface$o[26].channel datarate 65000bps
attr mutable ""
attr unit bps
par DNP3NetworkTopology.Concatenator.MeterInterface$o[26].channel ber 0
attr mutable ""
par DNP3NetworkTopology.Concatenator.MeterInterface$o[26].channel per 0
attr mutable ""
scalar DNP3NetworkTopology.Concatenator.MeterInterface$o[26].channel packetsDiscarded:count 1
attr interpolationmode none
attr recordingmode count
attr source constant1(messageDiscarded)
scalar DNP3NetworkTopology.Concatenator.MeterInterface$o[26].channel packets:count 59
attr interpolationmode none
attr recordingmode count
attr source constant1(messageSent)
scalar DNP3NetworkTopology.Concatenator.MeterInterface$o[26].channel packetBytes:sum 3654
attr interpolationmode none
attr recordingmode sum
attr source packetBytes(messageSent)
attr unit B
scalar DNP3NetworkTopology.Concatenator.MeterInterface$o[26].channel throughput:last 100.5065727936
attr recordingmode last
attr source sumPerDuration(packetBits(messageSent))
attr unit bps
scalar DNP3NetworkTopology.Concatenator.MeterInterface$o[26].channel utilization:last 0.001546217016054
attr recordingmode last
attr source timeavg(channelBusy)
par DNP3NetworkTopology.meter[27].interface$o.channel typename "\"ned.DatarateChannel\""
par DNP3NetworkTopology.meter[27].interface$o.channel disabled false
attr mutable ""
par DNP3NetworkTopology.meter[27].interface$o.channel delay 0.002s
attr mutable ""
attr unit s
par DNP3NetworkTopology.meter[27].interface$o.channel datarate 65000bps
attr mutable ""
attr unit bps
par DNP3NetworkTopology.meter[27].interface$o.channel ber 0
attr mutable ""
par DNP3NetworkTopology.meter[27].interface$o.channel per 0
attr mutable ""
scalar DNP3NetworkTopology.meter[27].interface$o.channel packetsDiscarded:count 1
attr interpolationmode none
attr recordingmode count
attr source constant1(messageDiscarded)
scalar DNP3NetworkTopology.meter[27].interface$o.channel packets:count 59
attr interpolationmode none
attr recordingmode count
attr source constant1(messageSent)
scalar DNP3NetworkTopology.meter[27].interface$o.channel packetBytes:sum 14500
attr interpolationmode none
attr recordingmode sum
attr source packetBytes(messageSent)
attr unit B
scalar DNP3NetworkTopology.meter[27].interface$o.channel throughput:last 398.78485652852
attr recordingmode last
attr source sumPerDuration(packetBits(messageSent))
attr unit bps
scalar DNP3NetworkTopology.meter[27].interface$o.channel utilization:last 0.0061350010822065
attr recordingmode last
attr source timeavg(channelBusy)
par DNP3NetworkTopology.Concatenator.MeterInterface$o[27].channel typename "\"ned.DatarateChannel\""
par DNP3NetworkTopology.Concatenator.MeterInterface$o[27].channel disabled false
attr mutable ""
par DNP3NetworkTopology.Concatenator.MeterInterface$o[27].channel delay 0.002s
attr mutable ""
attr unit s
par DNP3NetworkTopology.Concatenator.MeterInterface$o[27].channel datarate 65000bps
[...]
par DNP3NetworkTopology.meter[65] stopGenerationTime 300s
attr unit s
scalar DNP3NetworkTopology.meter[65] retransmissions 29
scalar DNP3NetworkTopology.meter[65] generatedEventPackets 29
par DNP3NetworkTopology.meter[66] typename "\"basicbaseline.DNP3SmartMeter\""
par DNP3NetworkTopology.meter[66] meterId 66
par DNP3NetworkTopology.meter[66] totalPackets 500
par DNP3NetworkTopology.meter[66] eventBytes 442
par DNP3NetworkTopology.meter[66] ackTimeout 2s
attr unit s
par DNP3NetworkTopology.meter[66] eventInterval 10s
attr unit s
par DNP3NetworkTopology.meter[66] stopGenerationTime 300s
attr unit s
scalar DNP3NetworkTopology.meter[66] retransmissions 29
scalar DNP3NetworkTopology.meter[66] generatedEventPackets 29
par DNP3NetworkTopology.meter[67] typename "\"basicbaseline.DNP3SmartMeter\""
par DNP3NetworkTopology.meter[67] meterId 67
par DNP3NetworkTopology.meter[67] totalPackets 500
par DNP3NetworkTopology.meter[67] eventBytes 442
par DNP3NetworkTopology.meter[67] ackTimeout 2s
attr unit s
par DNP3NetworkTopology.meter[67] eventInterval 10s
attr unit s
par DNP3NetworkTopology.meter[67] stopGenerationTime 300s
attr unit s
scalar DNP3NetworkTopology.meter[67] retransmissions 29
scalar DNP3NetworkTopology.meter[67] generatedEventPackets 29
par DNP3NetworkTopology.meter[68] typename "\"basicbaseline.DNP3SmartMeter\""
par DNP3NetworkTopology.meter[68] meterId 68
par DNP3NetworkTopology.meter[68] totalPackets 500
par DNP3NetworkTopology.meter[68] eventBytes 442
par DNP3NetworkTopology.meter[68] ackTimeout 2s
attr unit s
par DNP3NetworkTopology.meter[68] eventInterval 10s
attr unit s
par DNP3NetworkTopology.meter[68] stopGenerationTime 300s
attr unit s
scalar DNP3NetworkTopology.meter[68] retransmissions 29
scalar DNP3NetworkTopology.meter[68] generatedEventPackets 29
par DNP3NetworkTopology.meter[69] typename "\"basicbaseline.DNP3SmartMeter\""
par DNP3NetworkTopology.meter[69] meterId 69
par DNP3NetworkTopology.meter[69] totalPackets 500
par DNP3NetworkTopology.meter[69] eventBytes 442
par DNP3NetworkTopology.meter[69] ackTimeout 2s
attr unit s
par DNP3NetworkTopology.meter[69] eventInterval 10s
attr unit s
par DNP3NetworkTopology.meter[69] stopGenerationTime 300s
attr unit s
scalar DNP3NetworkTopology.meter[69] retransmissions 29
scalar DNP3NetworkTopology.meter[69] generatedEventPackets 29
par DNP3NetworkTopology.meter[70] typename "\"basicbaseline.DNP3SmartMeter\""
par DNP3NetworkTopology.meter[70] meterId 70
par DNP3NetworkTopology.meter[70] totalPackets 500
par DNP3NetworkTopology.meter[70] eventBytes 442
par DNP3NetworkTopology.meter[70] ackTimeout 2s
attr unit s
par DNP3NetworkTopology.meter[70] eventInterval 10s
attr unit s
par DNP3NetworkTopology.meter[70] stopGenerationTime 300s
attr unit s
scalar DNP3NetworkTopology.meter[70] retransmissions 29
scalar DNP3NetworkTopology.meter[70] generatedEventPackets 29
par DNP3NetworkTopology.meter[71] typename "\"basicbaseline.DNP3SmartMeter\""
par DNP3NetworkTopology.meter[71] meterId 71
par DNP3NetworkTopology.meter[71] totalPackets 500
par DNP3NetworkTopology.meter[71] eventBytes 442
par DNP3NetworkTopology.meter[71] ackTimeout 2s
attr unit s
par DNP3NetworkTopology.meter[71] eventInterval 10s
attr unit s
par DNP3NetworkTopology.meter[71] stopGenerationTime 300s
attr unit s
scalar DNP3NetworkTopology.meter[71] retransmissions 29
scalar DNP3NetworkTopology.meter[71] generatedEventPackets 29
par DNP3NetworkTopology.meter[72] typename "\"basicbaseline.DNP3SmartMeter\""
par DNP3NetworkTopology.meter[72] meterId 72
par DNP3NetworkTopology.meter[72] totalPackets 500
par DNP3NetworkTopology.meter[72] eventBytes 442
par DNP3NetworkTopology.meter[72] ackTimeout 2s
attr unit s
par DNP3NetworkTopology.meter[72] eventInterval 10s
attr unit s
par DNP3NetworkTopology.meter[72] stopGenerationTime 300s
attr unit s
scalar DNP3NetworkTopology.meter[72] retransmissions 29
scalar DNP3NetworkTopology.meter[72] generatedEventPackets 29
par DNP3NetworkTopology.meter[73] typename "\"basicbaseline.DNP3SmartMeter\""
par DNP3NetworkTopology.meter[73] meterId 73
par DNP3NetworkTopology.meter[73] totalPackets 500
par DNP3NetworkTopology.meter[73] eventBytes 442
par DNP3NetworkTopology.meter[73] ackTimeout 2s
attr unit s
par DNP3NetworkTopology.meter[73] eventInterval 10s
attr unit s
par DNP3NetworkTopology.meter[73] stopGenerationTime 300s
attr unit s
scalar DNP3NetworkTopology.meter[73] retransmissions 29
scalar DNP3NetworkTopology.meter[73] generatedEventPackets 29
par DNP3NetworkTopology.meter[74] typename "\"basicbaseline.DNP3SmartMeter\""
par DNP3NetworkTopology.meter[74] meterId 74
par DNP3NetworkTopology.meter[74] totalPackets 500
par DNP3NetworkTopology.meter[74] eventBytes 442
par DNP3NetworkTopology.meter[74] ackTimeout 2s
attr unit s
par DNP3NetworkTopology.meter[74] eventInterval 10s
attr unit s
par DNP3NetworkTopology.meter[74] stopGenerationTime 300s
attr unit s
scalar DNP3NetworkTopology.meter[74] retransmissions 29
scalar DNP3NetworkTopology.meter[74] generatedEventPackets 29
par DNP3NetworkTopology.meter[75] typename "\"basicbaseline.DNP3SmartMeter\""
par DNP3NetworkTopology.meter[75] meterId 75
par DNP3NetworkTopology.meter[75] totalPackets 500
par DNP3NetworkTopology.meter[75] eventBytes 442
par DNP3NetworkTopology.meter[75] ackTimeout 2s
attr unit s
par DNP3NetworkTopology.meter[75] eventInterval 10s
attr unit s
par DNP3NetworkTopology.meter[75] stopGenerationTime 300s
attr unit s
scalar DNP3NetworkTopology.meter[75] retransmissions 29
scalar DNP3NetworkTopology.meter[75] generatedEventPackets 29
par DNP3NetworkTopology.meter[76] typename "\"basicbaseline.DNP3SmartMeter\""
par DNP3NetworkTopology.meter[76] meterId 76
par DNP3NetworkTopology.meter[76] totalPackets 500
par DNP3NetworkTopology.meter[76] eventBytes 442
par DNP3NetworkTopology.meter[76] ackTimeout 2s
attr unit s
par DNP3NetworkTopology.meter[76] eventInterval 10s
attr unit s
par DNP3NetworkTopology.meter[76] stopGenerationTime 300s
attr unit s
scalar DNP3NetworkTopology.meter[76] retransmissions 29
scalar DNP3NetworkTopology.meter[76] generatedEventPackets 29
par DNP3NetworkTopology.meter[77] typename "\"basicbaseline.DNP3SmartMeter\""
par DNP3NetworkTopology.meter[77] meterId 77
par DNP3NetworkTopology.meter[77] totalPackets 500
par DNP3NetworkTopology.meter[77] eventBytes 442
par DNP3NetworkTopology.meter[77] ackTimeout 2s
attr unit s
par DNP3NetworkTopology.meter[77] eventInterval 10s
attr unit s
par DNP3NetworkTopology.meter[77] stopGenerationTime 300s
attr unit s
scalar DNP3NetworkTopology.meter[77] retransmissions 29
scalar DNP3NetworkTopology.meter[77] generatedEventPackets 29
par DNP3NetworkTopology.meter[78] typename "\"basicbaseline.DNP3SmartMeter\""
par DNP3NetworkTopology.meter[78] meterId 78
par DNP3NetworkTopology.meter[78] totalPackets 500
par DNP3NetworkTopology.meter[78] eventBytes 442
par DNP3NetworkTopology.meter[78] ackTimeout 2s
attr unit s
par DNP3NetworkTopology.meter[78] eventInterval 10s
attr unit s
par DNP3NetworkTopology.meter[78] stopGenerationTime 300s
attr unit s
scalar DNP3NetworkTopology.meter[78] retransmissions 29
scalar DNP3NetworkTopology.meter[78] generatedEventPackets 29
par DNP3NetworkTopology.meter[79] typename "\"basicbaseline.DNP3SmartMeter\""
par DNP3NetworkTopology.meter[79] meterId 79
par DNP3NetworkTopology.meter[79] totalPackets 500
par DNP3NetworkTopology.meter[79] eventBytes 442
par DNP3NetworkTopology.meter[79] ackTimeout 2s
attr unit s
par DNP3NetworkTopology.meter[79] eventInterval 10s
attr unit s
par DNP3NetworkTopology.meter[79] stopGenerationTime 300s
attr unit s
scalar DNP3NetworkTopology.meter[79] retransmissions 29
scalar DNP3NetworkTopology.meter[79] generatedEventPackets 29
par DNP3NetworkTopology.meter[80] typename "\"basicbaseline.DNP3SmartMeter\""
par DNP3NetworkTopology.meter[80] meterId 80
par DNP3NetworkTopology.meter[80] totalPackets 500
par DNP3NetworkTopology.meter[80] eventBytes 442
par DNP3NetworkTopology.meter[80] ackTimeout 2s
attr unit s
par DNP3NetworkTopology.meter[80] eventInterval 10s
attr unit s
par DNP3NetworkTopology.meter[80] stopGenerationTime 300s
attr unit s
scalar DNP3NetworkTopology.meter[80] retransmissions 29
scalar DNP3NetworkTopology.meter[80] generatedEventPackets 29
par DNP3NetworkTopology.meter[81] typename "\"basicbaseline.DNP3SmartMeter\""
par DNP3NetworkTopology.meter[81] meterId 81
par DNP3NetworkTopology.meter[81] totalPackets 500
par DNP3NetworkTopology.meter[81] eventBytes 442
par DNP3NetworkTopology.meter[81] ackTimeout 2s
attr unit s
par DNP3NetworkTopology.meter[81] eventInterval 10s
attr unit s
par DNP3NetworkTopology.meter[81] stopGenerationTime 300s
attr unit s
scalar DNP3NetworkTopology.meter[81] retransmissions 29
scalar DNP3NetworkTopology.meter[81] generatedEventPackets 29
par DNP3NetworkTopology.meter[82] typename "\"basicbaseline.DNP3SmartMeter\""
par DNP3NetworkTopology.meter[82] meterId 82
par DNP3NetworkTopology.meter[82] totalPackets 500
par DNP3NetworkTopology.meter[82] eventBytes 442
par DNP3NetworkTopology.meter[82] ackTimeout 2s
attr unit s
par DNP3NetworkTopology.meter[82] eventInterval 10s
attr unit s
par DNP3NetworkTopology.meter[82] stopGenerationTime 300s
attr unit s
scalar DNP3NetworkTopology.meter[82] retransmissions 29
scalar DNP3NetworkTopology.meter[82] generatedEventPackets 29
par DNP3NetworkTopology.meter[83] typename "\"basicbaseline.DNP3SmartMeter\""
par DNP3NetworkTopology.meter[83] meterId 83
par DNP3NetworkTopology.meter[83] totalPackets 500
par DNP3NetworkTopology.meter[83] eventBytes 442
par DNP3NetworkTopology.meter[83] ackTimeout 2s
attr unit s
par DNP3NetworkTopology.meter[83] eventInterval 10s
attr unit s
par DNP3NetworkTopology.meter[83] stopGenerationTime 300s
attr unit s
scalar DNP3NetworkTopology.meter[83] retransmissions 29
scalar DNP3NetworkTopology.meter[83] generatedEventPackets 29
par DNP3NetworkTopology.meter[84] typename "\"basicbaseline.DNP3SmartMeter\""
par DNP3NetworkTopology.meter[84] meterId 84
par DNP3NetworkTopology.meter[84] totalPackets 500
par DNP3NetworkTopology.meter[84] eventBytes 442
par DNP3NetworkTopology.meter[84] ackTimeout 2s
attr unit s
par DNP3NetworkTopology.meter[84] eventInterval 10s
attr unit s
par DNP3NetworkTopology.meter[84] stopGenerationTime 300s
attr unit s
scalar DNP3NetworkTopology.meter[84] retransmissions 29
scalar DNP3NetworkTopology.meter[84] generatedEventPackets 29
par DNP3NetworkTopology.meter[85] typename "\"basicbaseline.DNP3SmartMeter\""
par DNP3NetworkTopology.meter[85] meterId 85
par DNP3NetworkTopology.meter[85] totalPackets 500
par DNP3NetworkTopology.meter[85] eventBytes 442
par DNP3NetworkTopology.meter[85] ackTimeout 2s
attr unit s
par DNP3NetworkTopology.meter[85] eventInterval 10s
attr unit s
par DNP3NetworkTopology.meter[85] stopGenerationTime 300s
attr unit s
scalar DNP3NetworkTopology.meter[85] retransmissions 29
scalar DNP3NetworkTopology.meter[85] generatedEventPackets 29
par DNP3NetworkTopology.meter[86] typename "\"basicbaseline.DNP3SmartMeter\""
par DNP3NetworkTopology.meter[86] meterId 86
par DNP3NetworkTopology.meter[86] totalPackets 500
par DNP3NetworkTopology.meter[86] eventBytes 442
par DNP3NetworkTopology.meter[86] ackTimeout 2s
attr unit s
par DNP3NetworkTopology.meter[86] eventInterval 10s
attr unit s
par DNP3NetworkTopology.meter[86] stopGenerationTime 300s
attr unit s
scalar DNP3NetworkTopology.meter[86] retransmissions 29
scalar DNP3NetworkTopology.meter[86] generatedEventPackets 29
par DNP3NetworkTopology.meter[87] typename "\"basicbaseline.DNP3SmartMeter\""
par DNP3NetworkTopology.meter[87] meterId 87
par DNP3NetworkTopology.meter[87] totalPackets 500
par DNP3NetworkTopology.meter[87] eventBytes 442
par DNP3NetworkTopology.meter[87] ackTimeout 2s
attr unit s
par DNP3NetworkTopology.meter[87] eventInterval 10s
attr unit s
par DNP3NetworkTopology.meter[87] stopGenerationTime 300s
attr unit s
scalar DNP3NetworkTopology.meter[87] retransmissions 29
scalar DNP3NetworkTopology.meter[87] generatedEventPackets 29
par DNP3NetworkTopology.meter[88] typename "\"basicbaseline.DNP3SmartMeter\""
par DNP3NetworkTopology.meter[88] meterId 88
par DNP3NetworkTopology.meter[88] totalPackets 500
par DNP3NetworkTopology.meter[88] eventBytes 442
par DNP3NetworkTopology.meter[88] ackTimeout 2s
attr unit s
par DNP3NetworkTopology.meter[88] eventInterval 10s
attr unit s
par DNP3NetworkTopology.meter[88] stopGenerationTime 300s
attr unit s
scalar DNP3NetworkTopology.meter[88] retransmissions 29
scalar DNP3NetworkTopology.meter[88] generatedEventPackets 29
par DNP3NetworkTopology.meter[89] typename "\"basicbaseline.DNP3SmartMeter\""
par DNP3NetworkTopology.meter[89] meterId 89
par DNP3NetworkTopology.meter[89] totalPackets 500
par DNP3NetworkTopology.meter[89] eventBytes 442
par DNP3NetworkTopology.meter[89] ackTimeout 2s
attr unit s
par DNP3NetworkTopology.meter[89] eventInterval 10s
attr unit s
par DNP3NetworkTopology.meter[89] stopGenerationTime 300s
attr unit s
scalar DNP3NetworkTopology.meter[89] retransmissions 29
scalar DNP3NetworkTopology.meter[89] generatedEventPackets 29
par DNP3NetworkTopology.meter[90] typename "\"basicbaseline.DNP3SmartMeter\""
par DNP3NetworkTopology.meter[90] meterId 90
par DNP3NetworkTopology.meter[90] totalPackets 500
par DNP3NetworkTopology.meter[90] eventBytes 442
par DNP3NetworkTopology.meter[90] ackTimeout 2s
attr unit s
par DNP3NetworkTopology.meter[90] eventInterval 10s
attr unit s
par DNP3NetworkTopology.meter[90] stopGenerationTime 300s
attr unit s
scalar DNP3NetworkTopology.meter[90] retransmissions 29
scalar DNP3NetworkTopology.meter[90] generatedEventPackets 29
par DNP3NetworkTopology.meter[91] typename "\"basicbaseline.DNP3SmartMeter\""
par DNP3NetworkTopology.meter[91] meterId 91
par DNP3NetworkTopology.meter[91] totalPackets 500
par DNP3NetworkTopology.meter[91] eventBytes 442
par DNP3NetworkTopology.meter[91] ackTimeout 2s
attr unit s
par DNP3NetworkTopology.meter[91] eventInterval 10s
attr unit s
par DNP3NetworkTopology.meter[91] stopGenerationTime 300s
attr unit s
scalar DNP3NetworkTopology.meter[91] retransmissions 29
scalar DNP3NetworkTopology.meter[91] generatedEventPackets 29
par DNP3NetworkTopology.meter[92] typename "\"basicbaseline.DNP3SmartMeter\""
par DNP3NetworkTopology.meter[92] meterId 92
par DNP3NetworkTopology.meter[92] totalPackets 500
par DNP3NetworkTopology.meter[92] eventBytes 442
par DNP3NetworkTopology.meter[92] ackTimeout 2s
attr unit s
par DNP3NetworkTopology.meter[92] eventInterval 10s
attr unit s
par DNP3NetworkTopology.meter[92] stopGenerationTime 300s
attr unit s
scalar DNP3NetworkTopology.meter[92] retransmissions 29
scalar DNP3NetworkTopology.meter[92] generatedEventPackets 29
par DNP3NetworkTopology.meter[93] typename "\"basicbaseline.DNP3SmartMeter\""
par DNP3NetworkTopology.meter[93] meterId 93
par DNP3NetworkTopology.meter[93] totalPackets 500
par DNP3NetworkTopology.meter[93] eventBytes 442
par DNP3NetworkTopology.meter[93] ackTimeout 2s
attr unit s
par DNP3NetworkTopology.meter[93] eventInterval 10s
attr unit s
par DNP3NetworkTopology.meter[93] stopGenerationTime 300s
attr unit s
scalar DNP3NetworkTopology.meter[93] retransmissions 29
scalar DNP3NetworkTopology.meter[93] generatedEventPackets 29
par DNP3NetworkTopology.meter[94] typename "\"basicbaseline.DNP3SmartMeter\""
par DNP3NetworkTopology.meter[94] meterId 94
par DNP3NetworkTopology.meter[94] totalPackets 500
par DNP3NetworkTopology.meter[94] eventBytes 442
par DNP3NetworkTopology.meter[94] ackTimeout 2s
attr unit s
par DNP3NetworkTopology.meter[94] eventInterval 10s
attr unit s
par DNP3NetworkTopology.meter[94] stopGenerationTime 300s
attr unit s
scalar DNP3NetworkTopology.meter[94] retransmissions 29
scalar DNP3NetworkTopology.meter[94] generatedEventPackets 29
par DNP3NetworkTopology.meter[95] typename "\"basicbaseline.DNP3SmartMeter\""
par DNP3NetworkTopology.meter[95] meterId 95
par DNP3NetworkTopology.meter[95] totalPackets 500
par DNP3NetworkTopology.meter[95] eventBytes 442
par DNP3NetworkTopology.meter[95] ackTimeout 2s
attr unit s
par DNP3NetworkTopology.meter[95] eventInterval 10s
attr unit s
par DNP3NetworkTopology.meter[95] stopGenerationTime 300s
attr unit s
scalar DNP3NetworkTopology.meter[95] retransmissions 29
scalar DNP3NetworkTopology.meter[95] generatedEventPackets 29
par DNP3NetworkTopology.meter[96] typename "\"basicbaseline.DNP3SmartMeter\""
par DNP3NetworkTopology.meter[96] meterId 96
par DNP3NetworkTopology.meter[96] totalPackets 500
par DNP3NetworkTopology.meter[96] eventBytes 442
par DNP3NetworkTopology.meter[96] ackTimeout 2s
attr unit s
par DNP3NetworkTopology.meter[96] eventInterval 10s
attr unit s
par DNP3NetworkTopology.meter[96] stopGenerationTime 300s
attr unit s
scalar DNP3NetworkTopology.meter[96] retransmissions 29
scalar DNP3NetworkTopology.meter[96] generatedEventPackets 29
par DNP3NetworkTopology.meter[97] typename "\"basicbaseline.DNP3SmartMeter\""
par DNP3NetworkTopology.meter[97] meterId 97
par DNP3NetworkTopology.meter[97] totalPackets 500
par DNP3NetworkTopology.meter[97] eventBytes 442
par DNP3NetworkTopology.meter[97] ackTimeout 2s
attr unit s
par DNP3NetworkTopology.meter[97] eventInterval 10s
attr unit s
par DNP3NetworkTopology.meter[97] stopGenerationTime 300s
attr unit s
scalar DNP3NetworkTopology.meter[97] retransmissions 29
scalar DNP3NetworkTopology.meter[97] generatedEventPackets 29
par DNP3NetworkTopology.meter[98] typename "\"basicbaseline.DNP3SmartMeter\""
par DNP3NetworkTopology.meter[98] meterId 98
par DNP3NetworkTopology.meter[98] totalPackets 500
par DNP3NetworkTopology.meter[98] eventBytes 442
par DNP3NetworkTopology.meter[98] ackTimeout 2s
attr unit s
par DNP3NetworkTopology.meter[98] eventInterval 10s
attr unit s
par DNP3NetworkTopology.meter[98] stopGenerationTime 300s
attr unit s
scalar DNP3NetworkTopology.meter[98] retransmissions 29
scalar DNP3NetworkTopology.meter[98] generatedEventPackets 29
par DNP3NetworkTopology.meter[99] typename "\"basicbaseline.DNP3SmartMeter\""
par DNP3NetworkTopology.meter[99] meterId 99
par DNP3NetworkTopology.meter[99] totalPackets 500
par DNP3NetworkTopology.meter[99] eventBytes 442
par DNP3NetworkTopology.meter[99] ackTimeout 2s
attr unit s
par DNP3NetworkTopology.meter[99] eventInterval 10s
attr unit s
par DNP3NetworkTopology.meter[99] stopGenerationTime 300s
attr unit s
scalar DNP3NetworkTopology.meter[99] retransmissions 29
scalar DNP3NetworkTopology.meter[99] generatedEventPackets 29
par DNP3NetworkTopology.Concatenator typename "\"basicbaseline.Concatenator\""
scalar DNP3NetworkTopology.Concatenator droppedPackets 1421
scalar DNP3NetworkTopology.Concatenator queueLength:mean 34.981984311697
attr recordingmode mean
attr source queueLength
attr title "Queue Length, mean"
scalar DNP3NetworkTopology.Concatenator queueLength:max 50
attr recordingmode max
attr source queueLength
attr title "Queue Length, max"
scalar DNP3NetworkTopology.Concatenator queueLength:timeavg 11.440473708799
attr recordingmode timeavg
attr source queueLength
attr title "Queue Length, timeavg"
par DNP3NetworkTopology.distAuto typename "\"basicbaseline.DNP3DA\""
par DNP3NetworkTopology.distAuto numMeters 100
par DNP3NetworkTopology.distAuto processingDelay 0.01s
attr unit s
scalar DNP3NetworkTopology.distAuto receivedEventPackets 2900
scalar DNP3NetworkTopology.distAuto eventBytesTotal 1281800
scalar DNP3NetworkTopology.distAuto ackBytesTotal 197200
scalar DNP3NetworkTopology.distAuto confirmBytesTotal 168200
scalar DNP3NetworkTopology.distAuto tcpAckBytesTotal 168200
scalar DNP3NetworkTopology.distAuto packetDelay:mean 1.74611375
attr recordingmode mean
attr source packetDelay
attr title "Packet Delay, mean"
scalar DNP3NetworkTopology.distAuto packetDelay:max 3.415025
attr recordingmode max
attr source packetDelay
attr title "Packet Delay, max"
scalar DNP3NetworkTopology.distAuto packetDelay:min 0.089025
attr recordingmode min
attr source packetDelay
attr title "Packet Delay, min"
par DNP3NetworkTopology typename "\"basicbaseline.simulations.DNP3NetworkTopology\""
par DNP3NetworkTopology numMeters 100

