version 3
run VeryHeavyTraffic_50-0-20260420-13:47:48-27856
attr configname VeryHeavyTraffic_50
attr datetime 20260420-13:47:48
attr datetimef 20260420-134748
attr experiment VeryHeavyTraffic_50
attr inifile omnetpp.ini
attr iterationvars ""
attr iterationvarsd ""
attr iterationvarsf ""
attr measurement ""
attr network DNP3NetworkTopology
attr processid 27856
attr repetition 0
attr replication #0
attr resultdir results
attr runnumber 0
attr seedset 0
config image-path ../../samples/inet4.5/images
config description "Very heavy traffic with 50 smart meters"
config *.numMeters 50
config *.distAuto.numMeters 50
config **.eventInterval 0.5s
config **.eventBytes 542
config network DNP3NetworkTopology
config sim-time-limit 350s
config output-scalar-file VeryHeavyTraffic_50.sca
config output-vector-file VeryHeavyTraffic_50.vec
config **.scalar-recording true
config **.vector-recording true
config **.result-recording-modes all
config *.distAuto.processingDelay 10ms
config **.totalPackets 500
config **.ackTimeout 2s
config **.stopGenerationTime 300s
config *.meter[*].meterId index

par DNP3NetworkTopology.meter[0].interface$o.channel typename "\"ned.DatarateChannel\""
par DNP3NetworkTopology.meter[0].interface$o.channel disabled false
attr mutable ""
par DNP3NetworkTopology.meter[0].interface$o.channel delay 0.002s
attr mutable ""
attr unit s
par DNP3NetworkTopology.meter[0].interface$o.channel datarate 65000bps
attr mutable ""
attr unit bps
par DNP3NetworkTopology.meter[0].interface$o.channel ber 0
attr mutable ""
par DNP3NetworkTopology.meter[0].interface$o.channel per 0
attr mutable ""
scalar DNP3NetworkTopology.meter[0].interface$o.channel packetsDiscarded:count 1
attr interpolationmode none
attr recordingmode count
attr source constant1(messageDiscarded)
scalar DNP3NetworkTopology.meter[0].interface$o.channel packets:count 483
attr interpolationmode none
attr recordingmode count
attr source constant1(messageSent)
scalar DNP3NetworkTopology.meter[0].interface$o.channel packetBytes:sum 145084
attr interpolationmode none
attr recordingmode sum
attr source packetBytes(messageSent)
attr unit B
scalar DNP3NetworkTopology.meter[0].interface$o.channel throughput:last 3863.9740313559
attr recordingmode last
attr source sumPerDuration(packetBits(messageSent))
attr unit bps
scalar DNP3NetworkTopology.meter[0].interface$o.channel utilization:last 0.059444341661313
attr recordingmode last
attr source timeavg(channelBusy)
par DNP3NetworkTopology.Concatenator.MeterInterface$o[0].channel typename "\"ned.DatarateChannel\""
par DNP3NetworkTopology.Concatenator.MeterInterface$o[0].channel disabled false
attr mutable ""
par DNP3NetworkTopology.Concatenator.MeterInterface$o[0].channel delay 0.002s
attr mutable ""
attr unit s
par DNP3NetworkTopology.Concatenator.MeterInterface$o[0].channel datarate 65000bps
attr mutable ""
attr unit bps
par DNP3NetworkTopology.Concatenator.MeterInterface$o[0].channel ber 0
attr mutable ""
par DNP3NetworkTopology.Concatenator.MeterInterface$o[0].channel per 0
attr mutable ""
scalar DNP3NetworkTopology.Concatenator.MeterInterface$o[0].channel packetsDiscarded:count 1
attr interpolationmode none
attr recordingmode count
attr source constant1(messageDiscarded)
scalar DNP3NetworkTopology.Concatenator.MeterInterface$o[0].channel packets:count 481
attr interpolationmode none
attr recordingmode count
attr source constant1(messageSent)
scalar DNP3NetworkTopology.Concatenator.MeterInterface$o[0].channel packetBytes:sum 30240
attr interpolationmode none
attr recordingmode sum
attr source packetBytes(messageSent)
attr unit B
scalar DNP3NetworkTopology.Concatenator.MeterInterface$o[0].channel throughput:last 805.39638833258
attr recordingmode last
attr source sumPerDuration(packetBits(messageSent))
attr unit bps
scalar DNP3NetworkTopology.Concatenator.MeterInterface$o[0].channel utilization:last 0.012390419204597
attr recordingmode last
attr source timeavg(channelBusy)
par DNP3NetworkTopology.meter[1].interface$o.channel typename "\"ned.DatarateChannel\""
par DNP3NetworkTopology.meter[1].interface$o.channel disabled false
attr mutable ""
par DNP3NetworkTopology.meter[1].interface$o.channel delay 0.002s
attr mutable ""
attr unit s
par DNP3NetworkTopology.meter[1].interface$o.channel datarate 65000bps
attr mutable ""
attr unit bps
par DNP3NetworkTopology.meter[1].interface$o.channel ber 0
attr mutable ""
par DNP3NetworkTopology.meter[1].interface$o.channel per 0
attr mutable ""
scalar DNP3NetworkTopology.meter[1].interface$o.channel packetsDiscarded:count 1
attr interpolationmode none
attr recordingmode count
attr source constant1(messageDiscarded)
scalar DNP3NetworkTopology.meter[1].interface$o.channel packets:count 482
attr interpolationmode none
attr recordingmode count
attr source constant1(messageSent)
scalar DNP3NetworkTopology.meter[1].interface$o.channel packetBytes:sum 145026
attr interpolationmode none
attr recordingmode sum
attr source packetBytes(messageSent)
attr unit B
scalar DNP3NetworkTopology.meter[1].interface$o.channel throughput:last 3861.993809115
attr recordingmode last
attr source sumPerDuration(packetBits(messageSent))
attr unit bps
scalar DNP3NetworkTopology.meter[1].interface$o.channel utilization:last 0.059413877586936
attr recordingmode last
attr source timeavg(channelBusy)
par DNP3NetworkTopology.Concatenator.MeterInterface$o[1].channel typename "\"ned.DatarateChannel\""
par DNP3NetworkTopology.Concatenator.MeterInterface$o[1].channel disabled false
attr mutable ""
par DNP3NetworkTopology.Concatenator.MeterInterface$o[1].channel delay 0.002s
attr mutable ""
attr unit s
par DNP3NetworkTopology.Concatenator.MeterInterface$o[1].channel datarate 65000bps
attr mutable ""
attr unit bps
par DNP3NetworkTopology.Concatenator.MeterInterface$o[1].channel ber 0
attr mutable ""
par DNP3NetworkTopology.Concatenator.MeterInterface$o[1].channel per 0
attr mutable ""
scalar DNP3NetworkTopology.Concatenator.MeterInterface$o[1].channel packetsDiscarded:count 1
attr interpolationmode none
attr recordingmode count
attr source constant1(messageDiscarded)
scalar DNP3NetworkTopology.Concatenator.MeterInterface$o[1].channel packets:count 479
attr interpolationmode none
attr recordingmode count
attr source constant1(messageSent)
scalar DNP3NetworkTopology.Concatenator.MeterInterface$o[1].channel packetBytes:sum 30114
attr interpolationmode none
attr recordingmode sum
attr source packetBytes(messageSent)
attr unit B
scalar DNP3NetworkTopology.Concatenator.MeterInterface$o[1].channel throughput:last 801.95012921158
attr recordingmode last
attr source sumPerDuration(packetBits(messageSent))
attr unit bps
scalar DNP3NetworkTopology.Concatenator.MeterInterface$o[1].channel utilization:last 0.012337401126557
attr recordingmode last
attr source timeavg(channelBusy)
par DNP3NetworkTopology.meter[2].interface$o.channel typename "\"ned.DatarateChannel\""
par DNP3NetworkTopology.meter[2].interface$o.channel disabled false
attr mutable ""
par DNP3NetworkTopology.meter[2].interface$o.channel delay 0.002s
attr mutable ""
attr unit s
par DNP3NetworkTopology.meter[2].interface$o.channel datarate 65000bps
attr mutable ""
attr unit bps
par DNP3NetworkTopology.meter[2].interface$o.channel ber 0
attr mutable ""
par DNP3NetworkTopology.meter[2].interface$o.channel per 0
attr mutable ""
scalar DNP3NetworkTopology.meter[2].interface$o.channel packetsDiscarded:count 1
attr interpolationmode none
attr recordingmode count
attr source constant1(messageDiscarded)
scalar DNP3NetworkTopology.meter[2].interface$o.channel packets:count 433
attr interpolationmode none
attr recordingmode count
attr source constant1(messageSent)
scalar DNP3NetworkTopology.meter[2].interface$o.channel packetBytes:sum 142184
attr interpolationmode none
attr recordingmode sum
attr source packetBytes(messageSent)
attr unit B
scalar DNP3NetworkTopology.meter[2].interface$o.channel throughput:last 3770.838796084
attr recordingmode last
attr source sumPerDuration(packetBits(messageSent))
attr unit bps
scalar DNP3NetworkTopology.meter[2].interface$o.channel utilization:last 0.058011531726842
attr recordingmode last
attr source timeavg(channelBusy)
par DNP3NetworkTopology.Concatenator.MeterInterface$o[2].channel typename "\"ned.DatarateChannel\""
par DNP3NetworkTopology.Concatenator.MeterInterface$o[2].channel disabled false
attr mutable ""
par DNP3NetworkTopology.Concatenator.MeterInterface$o[2].channel delay 0.002s
attr mutable ""
attr unit s
par DNP3NetworkTopology.Concatenator.MeterInterface$o[2].channel datarate 65000bps
attr mutable ""
attr unit bps
par DNP3NetworkTopology.Concatenator.MeterInterface$o[2].channel ber 0
attr mutable ""
par DNP3NetworkTopology.Concatenator.MeterInterface$o[2].channel per 0
attr mutable ""
scalar DNP3NetworkTopology.Concatenator.MeterInterface$o[2].channel packetsDiscarded:count 1
attr interpolationmode none
attr recordingmode count
attr source constant1(messageDiscarded)
scalar DNP3NetworkTopology.Concatenator.MeterInterface$o[2].channel packets:count 381
attr interpolationmode none
attr recordingmode count
attr source constant1(messageSent)
scalar DNP3NetworkTopology.Concatenator.MeterInterface$o[2].channel packetBytes:sum 23940
attr interpolationmode none
attr recordingmode sum
attr source packetBytes(messageSent)
attr unit B
scalar DNP3NetworkTopology.Concatenator.MeterInterface$o[2].channel throughput:last 634.92809109633
attr recordingmode last
attr source sumPerDuration(packetBits(messageSent))
attr unit bps
scalar DNP3NetworkTopology.Concatenator.MeterInterface$o[2].channel utilization:last 0.0097678933162366
attr recordingmode last
attr source timeavg(channelBusy)
par DNP3NetworkTopology.meter[3].interface$o.channel typename "\"ned.DatarateChannel\""
par DNP3NetworkTopology.meter[3].interface$o.channel disabled false
attr mutable ""
par DNP3NetworkTopology.meter[3].interface$o.channel delay 0.002s
attr mutable ""
attr unit s
par DNP3NetworkTopology.meter[3].interface$o.channel datarate 65000bps
attr mutable ""
attr unit bps
par DNP3NetworkTopology.meter[3].interface$o.channel ber 0
attr mutable ""
par DNP3NetworkTopology.meter[3].interface$o.channel per 0
attr mutable ""
scalar DNP3NetworkTopology.meter[3].interface$o.channel packetsDiscarded:count 1
attr interpolationmode none
attr recordingmode count
attr source constant1(messageDiscarded)
scalar DNP3NetworkTopology.meter[3].interface$o.channel packets:count 435
attr interpolationmode none
attr recordingmode count
attr source constant1(messageSent)
scalar DNP3NetworkTopology.meter[3].interface$o.channel packetBytes:sum 142300
attr interpolationmode none
attr recordingmode sum
attr source packetBytes(messageSent)
attr unit B
scalar DNP3NetworkTopology.meter[3].interface$o.channel throughput:last 3780.1810613036
attr recordingmode last
attr source sumPerDuration(packetBits(messageSent))
attr unit bps
scalar DNP3NetworkTopology.meter[3].interface$o.channel utilization:last 0.058155253197972
attr recordingmode last
attr source timeavg(channelBusy)
par DNP3NetworkTopology.Concatenator.MeterInterface$o[3].channel typename "\"ned.DatarateChannel\""
par DNP3NetworkTopology.Concatenator.MeterInterface$o[3].channel disabled false
attr mutable ""
par DNP3NetworkTopology.Concatenator.MeterInterface$o[3].channel delay 0.002s
attr mutable ""
attr unit s
par DNP3NetworkTopology.Concatenator.MeterInterface$o[3].channel datarate 65000bps
attr mutable ""
attr unit bps
par DNP3NetworkTopology.Concatenator.MeterInterface$o[3].channel ber 0
attr mutable ""
par DNP3NetworkTopology.Concatenator.MeterInterface$o[3].channel per 0
attr mutable ""
scalar DNP3NetworkTopology.Concatenator.MeterInterface$o[3].channel packetsDiscarded:count 1
attr interpolationmode none
attr recordingmode count
attr source constant1(messageDiscarded)
scalar DNP3NetworkTopology.Concatenator.MeterInterface$o[3].channel packets:count 385
attr interpolationmode none
attr recordingmode count
attr source constant1(messageSent)
scalar DNP3NetworkTopology.Concatenator.MeterInterface$o[3].channel packetBytes:sum 24192
attr interpolationmode none
attr recordingmode sum
attr source packetBytes(messageSent)
attr unit B
scalar DNP3NetworkTopology.Concatenator.MeterInterface$o[3].channel throughput:last 642.67684748539
attr recordingmode last
attr source sumPerDuration(packetBits(messageSent))
attr unit bps
scalar DNP3NetworkTopology.Concatenator.MeterInterface$o[3].channel utilization:last 0.0098871017433688
attr recordingmode last
attr source timeavg(channelBusy)
par DNP3NetworkTopology.meter[4].interface$o.channel typename "\"ned.DatarateChannel\""
par DNP3NetworkTopology.meter[4].interface$o.channel disabled false
attr mutable ""
par DNP3NetworkTopology.meter[4].interface$o.channel delay 0.002s
attr mutable ""
attr unit s
par DNP3NetworkTopology.meter[4].interface$o.channel datarate 65000bps
attr mutable ""
attr unit bps
par DNP3NetworkTopology.meter[4].interface$o.channel ber 0
attr mutable ""
par DNP3NetworkTopology.meter[4].interface$o.channel per 0
attr mutable ""
scalar DNP3NetworkTopology.meter[4].interface$o.channel packetsDiscarded:count 1
attr interpolationmode none
attr recordingmode count
attr source constant1(messageDiscarded)
scalar DNP3NetworkTopology.meter[4].interface$o.channel packets:count 436
attr interpolationmode none
attr recordingmode count
attr source constant1(messageSent)
scalar DNP3NetworkTopology.meter[4].interface$o.channel packetBytes:sum 141390
attr interpolationmode none
attr recordingmode sum
attr source packetBytes(messageSent)
attr unit B
scalar DNP3NetworkTopology.meter[4].interface$o.channel throughput:last 3770.6957337327
attr recordingmode last
attr source sumPerDuration(packetBits(messageSent))
attr unit bps
scalar DNP3NetworkTopology.meter[4].interface$o.channel utilization:last 0.05800932316316
attr recordingmode last
attr source timeavg(channelBusy)
par DNP3NetworkTopology.Concatenator.MeterInterface$o[4].channel typename "\"ned.DatarateChannel\""
par DNP3NetworkTopology.Concatenator.MeterInterface$o[4].channel disabled false
attr mutable ""
par DNP3NetworkTopology.Concatenator.MeterInterface$o[4].channel delay 0.002s
attr mutable ""
attr unit s
par DNP3NetworkTopology.Concatenator.MeterInterface$o[4].channel datarate 65000bps
attr mutable ""
attr unit bps
par DNP3NetworkTopology.Concatenator.MeterInterface$o[4].channel ber 0
attr mutable ""
par DNP3NetworkTopology.Concatenator.MeterInterface$o[4].channel per 0
attr mutable ""
scalar DNP3NetworkTopology.Concatenator.MeterInterface$o[4].channel packetsDiscarded:count 1
attr interpolationmode none
attr recordingmode count
attr source constant1(messageDiscarded)
scalar DNP3NetworkTopology.Concatenator.MeterInterface$o[4].channel packets:count 391
attr interpolationmode none
attr recordingmode count
attr source constant1(messageSent)
scalar DNP3NetworkTopology.Concatenator.MeterInterface$o[4].channel packetBytes:sum 24570
attr interpolationmode none
attr recordingmode sum
attr source packetBytes(messageSent)
attr unit B
scalar DNP3NetworkTopology.Concatenator.MeterInterface$o[4].channel throughput:last 655.27135316972
attr recordingmode last
attr source sumPerDuration(packetBits(messageSent))
attr unit bps
scalar DNP3NetworkTopology.Concatenator.MeterInterface$o[4].channel utilization:last 0.01008085784178
attr recordingmode last
attr source timeavg(channelBusy)
par DNP3NetworkTopology.meter[5].interface$o.channel typename "\"ned.DatarateChannel\""
par DNP3NetworkTopology.meter[5].interface$o.channel disabled false
attr mutable ""
par DNP3NetworkTopology.meter[5].interface$o.channel delay 0.002s
attr mutable ""
attr unit s
par DNP3NetworkTopology.meter[5].interface$o.channel datarate 65000bps
attr mutable ""
attr unit bps
par DNP3NetworkTopology.meter[5].interface$o.channel ber 0
attr mutable ""
par DNP3NetworkTopology.meter[5].interface$o.channel per 0
attr mutable ""
scalar DNP3NetworkTopology.meter[5].interface$o.channel packetsDiscarded:count 1
attr interpolationmode none
attr recordingmode count
attr source constant1(messageDiscarded)
scalar DNP3NetworkTopology.meter[5].interface$o.channel packets:count 438
attr interpolationmode none
attr recordingmode count
attr source constant1(messageSent)
scalar DNP3NetworkTopology.meter[5].interface$o.channel packetBytes:sum 142474
attr interpolationmode none
attr recordingmode sum
attr source packetBytes(messageSent)
attr unit B
scalar DNP3NetworkTopology.meter[5].interface$o.channel throughput:last 3778.1055609068
attr recordingmode last
attr source sumPerDuration(packetBits(messageSent))
attr unit bps
scalar DNP3NetworkTopology.meter[5].interface$o.channel utilization:last 0.058123325617596
attr recordingmode last
attr source timeavg(channelBusy)
par DNP3NetworkTopology.Concatenator.MeterInterface$o[5].channel typename "\"ned.DatarateChannel\""
par DNP3NetworkTopology.Concatenator.MeterInterface$o[5].channel disabled false
attr mutable ""
par DNP3NetworkTopology.Concatenator.MeterInterface$o[5].channel delay 0.002s
attr mutable ""
attr unit s
par DNP3NetworkTopology.Concatenator.MeterInterface$o[5].channel datarate 65000bps
attr mutable ""
attr unit bps
par DNP3NetworkTopology.Concatenator.MeterInterface$o[5].channel ber 0
attr mutable ""
par DNP3NetworkTopology.Concatenator.MeterInterface$o[5].channel per 0
attr mutable ""
scalar DNP3NetworkTopology.Concatenator.MeterInterface$o[5].channel packetsDiscarded:count 1
attr interpolationmode none
attr recordingmode count
attr source constant1(messageDiscarded)
scalar DNP3NetworkTopology.Concatenator.MeterInterface$o[5].channel packets:count 391
attr interpolationmode none
attr recordingmode count
attr source constant1(messageSent)
scalar DNP3NetworkTopology.Concatenator.MeterInterface$o[5].channel packetBytes:sum 24570
attr interpolationmode none
attr recordingmode sum
attr source packetBytes(messageSent)
attr unit B
scalar DNP3NetworkTopology.Concatenator.MeterInterface$o[5].channel throughput:last 651.56355280806
attr recordingmode last
attr source sumPerDuration(packetBits(messageSent))
attr unit bps
scalar DNP3NetworkTopology.Concatenator.MeterInterface$o[5].channel utilization:last 0.010023817466479
attr recordingmode last
attr source timeavg(channelBusy)
par DNP3NetworkTopology.meter[6].interface$o.channel typename "\"ned.DatarateChannel\""
par DNP3NetworkTopology.meter[6].interface$o.channel disabled false
attr mutable ""
par DNP3NetworkTopology.meter[6].interface$o.channel delay 0.002s
attr mutable ""
attr unit s
par DNP3NetworkTopology.meter[6].interface$o.channel datarate 65000bps
attr mutable ""
attr unit bps
par DNP3NetworkTopology.meter[6].interface$o.channel ber 0
attr mutable ""
par DNP3NetworkTopology.meter[6].interface$o.channel per 0
attr mutable ""
scalar DNP3NetworkTopology.meter[6].interface$o.channel packetsDiscarded:count 1
attr interpolationmode none
attr recordingmode count
attr source constant1(messageDiscarded)
scalar DNP3NetworkTopology.meter[6].interface$o.channel packets:count 440
attr interpolationmode none
attr recordingmode count
attr source constant1(messageSent)
scalar DNP3NetworkTopology.meter[6].interface$o.channel packetBytes:sum 142590
attr interpolationmode none
attr recordingmode sum
attr source packetBytes(messageSent)
attr unit B
scalar DNP3NetworkTopology.meter[6].interface$o.channel throughput:last 3780.757104427
attr recordingmode last
attr source sumPerDuration(packetBits(messageSent))
attr unit bps
scalar DNP3NetworkTopology.meter[6].interface$o.channel utilization:last 0.05816411778412
attr recordingmode last
attr source timeavg(channelBusy)
par DNP3NetworkTopology.Concatenator.MeterInterface$o[6].channel typename "\"ned.DatarateChannel\""
par DNP3NetworkTopology.Concatenator.MeterInterface$o[6].channel disabled false
attr mutable ""
par DNP3NetworkTopology.Concatenator.MeterInterface$o[6].channel delay 0.002s
attr mutable ""
attr unit s
par DNP3NetworkTopology.Concatenator.MeterInterface$o[6].channel datarate 65000bps
attr mutable ""
attr unit bps
par DNP3NetworkTopology.Concatenator.MeterInterface$o[6].channel ber 0
attr mutable ""
par DNP3NetworkTopology.Concatenator.MeterInterface$o[6].channel per 0
attr mutable ""
scalar DNP3NetworkTopology.Concatenator.MeterInterface$o[6].channel packetsDiscarded:count 1
attr interpolationmode none
attr recordingmode count
attr source constant1(messageDiscarded)
scalar DNP3NetworkTopology.Concatenator.MeterInterface$o[6].channel packets:count 395
attr interpolationmode none
attr recordingmode count
attr source constant1(messageSent)
scalar DNP3NetworkTopology.Concatenator.MeterInterface$o[6].channel packetBytes:sum 24822
attr interpolationmode none
attr recordingmode sum
attr source packetBytes(messageSent)
attr unit B
scalar DNP3NetworkTopology.Concatenator.MeterInterface$o[6].channel throughput:last 658.17234976423
attr recordingmode last
attr source sumPerDuration(packetBits(messageSent))
attr unit bps
scalar DNP3NetworkTopology.Concatenator.MeterInterface$o[6].channel utilization:last 0.01012548888687
attr recordingmode last
attr source timeavg(channelBusy)
par DNP3NetworkTopology.meter[7].interface$o.channel typename "\"ned.DatarateChannel\""
par DNP3NetworkTopology.meter[7].interface$o.channel disabled false
attr mutable ""
par DNP3NetworkTopology.meter[7].interface$o.channel delay 0.002s
attr mutable ""
attr unit s
par DNP3NetworkTopology.meter[7].interface$o.channel datarate 65000bps
attr mutable ""
attr unit bps
par DNP3NetworkTopology.meter[7].interface$o.channel ber 0
attr mutable ""
par DNP3NetworkTopology.meter[7].interface$o.channel per 0
attr mutable ""
scalar DNP3NetworkTopology.meter[7].interface$o.channel packetsDiscarded:count 1
attr interpolationmode none
attr recordingmode count
attr source constant1(messageDiscarded)
scalar DNP3NetworkTopology.meter[7].interface$o.channel packets:count 438
attr interpolationmode none
attr recordingmode count
attr source constant1(messageSent)
scalar DNP3NetworkTopology.meter[7].interface$o.channel packetBytes:sum 141506
attr interpolationmode none
attr recordingmode sum
attr source packetBytes(messageSent)
attr unit B
scalar DNP3NetworkTopology.meter[7].interface$o.channel throughput:last 3773.3632006794
attr recordingmode last
attr source sumPerDuration(packetBits(messageSent))
attr unit bps
scalar DNP3NetworkTopology.meter[7].interface$o.channel utilization:last 0.058050360295611
attr recordingmode last
attr source timeavg(channelBusy)
par DNP3NetworkTopology.Concatenator.MeterInterface$o[7].channel typename "\"ned.DatarateChannel\""
par DNP3NetworkTopology.Concatenator.MeterInterface$o[7].channel disabled false
attr mutable ""
par DNP3NetworkTopology.Concatenator.MeterInterface$o[7].channel delay 0.002s
attr mutable ""
attr unit s
par DNP3NetworkTopology.Concatenator.MeterInterface$o[7].channel datarate 65000bps
attr mutable ""
attr unit bps
par DNP3NetworkTopology.Concatenator.MeterInterface$o[7].channel ber 0
attr mutable ""
par DNP3NetworkTopology.Concatenator.MeterInterface$o[7].channel per 0
attr mutable ""
scalar DNP3NetworkTopology.Concatenator.MeterInterface$o[7].channel packetsDiscarded:count 1
attr interpolationmode none
attr recordingmode count
attr source constant1(messageDiscarded)
scalar DNP3NetworkTopology.Concatenator.MeterInterface$o[7].channel packets:count 395
attr interpolationmode none
attr recordingmode count
attr source constant1(messageSent)
scalar DNP3NetworkTopology.Concatenator.MeterInterface$o[7].channel packetBytes:sum 24822
attr interpolationmode none
attr recordingmode sum
attr source packetBytes(messageSent)
attr unit B
scalar DNP3NetworkTopology.Concatenator.MeterInterface$o[7].channel throughput:last 661.91733535842
attr recordingmode last
attr source sumPerDuration(packetBits(messageSent))
attr unit bps
scalar DNP3NetworkTopology.Concatenator.MeterInterface$o[7].channel utilization:last 0.010183101315829
attr recordingmode last
attr source timeavg(channelBusy)
par DNP3NetworkTopology.meter[8].interface$o.channel typename "\"ned.DatarateChannel\""
par DNP3NetworkTopology.meter[8].interface$o.channel disabled false
attr mutable ""
par DNP3NetworkTopology.meter[8].interface$o.channel delay 0.002s
attr mutable ""
attr unit s
par DNP3NetworkTopology.meter[8].interface$o.channel datarate 65000bps
attr mutable ""
attr unit bps
par DNP3NetworkTopology.meter[8].interface$o.channel ber 0
attr mutable ""
par DNP3NetworkTopology.meter[8].interface$o.channel per 0
attr mutable ""
scalar DNP3NetworkTopology.meter[8].interface$o.channel packetsDiscarded:count 1
attr interpolationmode none
attr recordingmode count
attr source constant1(messageDiscarded)
scalar DNP3NetworkTopology.meter[8].interface$o.channel packets:count 448
attr interpolationmode none
attr recordingmode count
attr source constant1(messageSent)
scalar DNP3NetworkTopology.meter[8].interface$o.channel packetBytes:sum 141602
attr interpolationmode none
attr recordingmode sum
attr source packetBytes(messageSent)
attr unit B
scalar DNP3NetworkTopology.meter[8].interface$o.channel throughput:last 3782.1145355414
attr recordingmode last
attr source sumPerDuration(packetBits(messageSent))
attr unit bps
scalar DNP3NetworkTopology.meter[8].interface$o.channel utilization:last 0.058184990743035
attr recordingmode last
attr source timeavg(channelBusy)
par DNP3NetworkTopology.Concatenator.MeterInterface$o[8].channel typename "\"ned.DatarateChannel\""
par DNP3NetworkTopology.Concatenator.MeterInterface$o[8].channel disabled false
attr mutable ""
par DNP3NetworkTopology.Concatenator.MeterInterface$o[8].channel delay 0.002s
attr mutable ""
attr unit s
par DNP3NetworkTopology.Concatenator.MeterInterface$o[8].channel datarate 65000bps
attr mutable ""
attr unit bps
par DNP3NetworkTopology.Concatenator.MeterInterface$o[8].channel ber 0
attr mutable ""
par DNP3NetworkTopology.Concatenator.MeterInterface$o[8].channel per 0
attr mutable ""
scalar DNP3NetworkTopology.Concatenator.MeterInterface$o[8].channel packetsDiscarded:count 1
attr interpolationmode none
attr recordingmode count
attr source constant1(messageDiscarded)
scalar DNP3NetworkTopology.Concatenator.MeterInterface$o[8].channel packets:count 417
attr interpolationmode none
attr recordingmode count
attr source constant1(messageSent)
scalar DNP3NetworkTopology.Concatenator.MeterInterface$o[8].channel packetBytes:sum 26208
attr interpolationmode none
attr recordingmode sum
attr source packetBytes(messageSent)
attr unit B
scalar DNP3NetworkTopology.Concatenator.MeterInterface$o[8].channel throughput:last 700.02317823601
attr recordingmode last
attr source sumPerDuration(packetBits(messageSent))
attr unit bps
scalar DNP3NetworkTopology.Concatenator.MeterInterface$o[8].channel utilization:last 0.01076933068299
attr recordingmode last
attr source timeavg(channelBusy)
par DNP3NetworkTopology.meter[9].interface$o.channel typename "\"ned.DatarateChannel\""
par DNP3NetworkTopology.meter[9].interface$o.channel disabled false
attr mutable ""
par DNP3NetworkTopology.meter[9].interface$o.channel delay 0.002s
attr mutable ""
attr unit s
par DNP3NetworkTopology.meter[9].interface$o.channel datarate 65000bps
attr mutable ""
attr unit bps
par DNP3NetworkTopology.meter[9].interface$o.channel ber 0
attr mutable ""
par DNP3NetworkTopology.meter[9].interface$o.channel per 0
attr mutable ""
scalar DNP3NetworkTopology.meter[9].interface$o.channel packetsDiscarded:count 1
attr interpolationmode none
attr recordingmode count
attr source constant1(messageDiscarded)
scalar DNP3NetworkTopology.meter[9].interface$o.channel packets:count 465
attr interpolationmode none
attr recordingmode count
attr source constant1(messageSent)
scalar DNP3NetworkTopology.meter[9].interface$o.channel packetBytes:sum 143072
attr interpolationmode none
attr recordingmode sum
attr source packetBytes(messageSent)
attr unit B
scalar DNP3NetworkTopology.meter[9].interface$o.channel throughput:last 3820.945317194
attr recordingmode last
attr source sumPerDuration(packetBits(messageSent))
attr unit bps
scalar DNP3NetworkTopology.meter[9].interface$o.channel utilization:last 0.05878237330479
attr recordingmode last
attr source timeavg(channelBusy)
par DNP3NetworkTopology.Concatenator.MeterInterface$o[9].channel typename "\"ned.DatarateChannel\""
par DNP3NetworkTopology.Concatenator.MeterInterface$o[9].channel disabled false
attr mutable ""
par DNP3NetworkTopology.Concatenator.MeterInterface$o[9].channel delay 0.002s
attr mutable ""
attr unit s
par DNP3NetworkTopology.Concatenator.MeterInterface$o[9].channel datarate 65000bps
attr mutable ""
attr unit bps
par DNP3NetworkTopology.Concatenator.MeterInterface$o[9].channel ber 0
attr mutable ""
par DNP3NetworkTopology.Concatenator.MeterInterface$o[9].channel per 0
attr mutable ""
scalar DNP3NetworkTopology.Concatenator.MeterInterface$o[9].channel packetsDiscarded:count 1
attr interpolationmode none
attr recordingmode count
attr source constant1(messageDiscarded)
scalar DNP3NetworkTopology.Concatenator.MeterInterface$o[9].channel packets:count 449
attr interpolationmode none
attr recordingmode count
attr source constant1(messageSent)
scalar DNP3NetworkTopology.Concatenator.MeterInterface$o[9].channel packetBytes:sum 28224
attr interpolationmode none
attr recordingmode sum
attr source packetBytes(messageSent)
attr unit B
scalar DNP3NetworkTopology.Concatenator.MeterInterface$o[9].channel throughput:last 753.78586081157
attr recordingmode last
attr source sumPerDuration(packetBits(messageSent))
attr unit bps
scalar DNP3NetworkTopology.Concatenator.MeterInterface$o[9].channel utilization:last 0.011596429194784
attr recordingmode last
attr source timeavg(channelBusy)
par DNP3NetworkTopology.meter[10].interface$o.channel typename "\"ned.DatarateChannel\""
par DNP3NetworkTopology.meter[10].interface$o.channel disabled false
attr mutable ""
par DNP3NetworkTopology.meter[10].interface$o.channel delay 0.002s
attr mutable ""
attr unit s
par DNP3NetworkTopology.meter[10].interface$o.channel datarate 65000bps
attr mutable ""
attr unit bps
par DNP3NetworkTopology.meter[10].interface$o.channel ber 0
attr mutable ""
par DNP3NetworkTopology.meter[10].interface$o.channel per 0
attr mutable ""
scalar DNP3NetworkTopology.meter[10].interface$o.channel packetsDiscarded:count 1
attr interpolationmode none
attr recordingmode count
attr source constant1(messageDiscarded)
scalar DNP3NetworkTopology.meter[10].interface$o.channel packets:count 465
attr interpolationmode none
attr recordingmode count
attr source constant1(messageSent)
scalar DNP3NetworkTopology.meter[10].interface$o.channel packetBytes:sum 143072
attr interpolationmode none
attr recordingmode sum
attr source packetBytes(messageSent)
attr unit B
scalar DNP3NetworkTopology.meter[10].interface$o.channel throughput:last 3820.5132739642
attr recordingmode last
attr source sumPerDuration(packetBits(messageSent))
attr unit bps
scalar DNP3NetworkTopology.meter[10].interface$o.channel utilization:last 0.058775726802634
attr recordingmode last
attr source timeavg(channelBusy)
par DNP3NetworkTopology.Concatenator.MeterInterface$o[10].channel typename "\"ned.DatarateChannel\""
par DNP3NetworkTopology.Concatenator.MeterInterface$o[10].channel disabled false
attr mutable ""
par DNP3NetworkTopology.Concatenator.MeterInterface$o[10].channel delay 0.002s
attr mutable ""
attr unit s
par DNP3NetworkTopology.Concatenator.MeterInterface$o[10].channel datarate 65000bps
attr mutable ""
attr unit bps
par DNP3NetworkTopology.Concatenator.MeterInterface$o[10].channel ber 0
attr mutable ""
par DNP3NetworkTopology.Concatenator.MeterInterface$o[10].channel per 0
attr mutable ""
scalar DNP3NetworkTopology.Concatenator.MeterInterface$o[10].channel packetsDiscarded:count 1
attr interpolationmode none
attr recordingmode count
attr source constant1(messageDiscarded)
scalar DNP3NetworkTopology.Concatenator.MeterInterface$o[10].channel packets:count 449
attr interpolationmode none
attr recordingmode count
attr source constant1(messageSent)
scalar DNP3NetworkTopology.Concatenator.MeterInterface$o[10].channel packetBytes:sum 28224
attr interpolationmode none
attr recordingmode sum
attr source packetBytes(messageSent)
attr unit B
scalar DNP3NetworkTopology.Concatenator.MeterInterface$o[10].channel throughput:last 753.70062588011
attr recordingmode last
attr source sumPerDuration(packetBits(messageSent))
attr unit bps
scalar DNP3NetworkTopology.Concatenator.MeterInterface$o[10].channel utilization:last 0.01159511795064
attr recordingmode last
attr source timeavg(channelBusy)
par DNP3NetworkTopology.meter[11].interface$o.channel typename "\"ned.DatarateChannel\""
par DNP3NetworkTopology.meter[11].interface$o.channel disabled false
attr mutable ""
par DNP3NetworkTopology.meter[11].interface$o.channel delay 0.002s
attr mutable ""
attr unit s
par DNP3NetworkTopology.meter[11].interface$o.channel datarate 65000bps
attr mutable ""
attr unit bps
par DNP3NetworkTopology.meter[11].interface$o.channel ber 0
attr mutable ""
par DNP3NetworkTopology.meter[11].interface$o.channel per 0
attr mutable ""
scalar DNP3NetworkTopology.meter[11].interface$o.channel packetsDiscarded:count 1
attr interpolationmode none
attr recordingmode count
attr source constant1(messageDiscarded)
scalar DNP3NetworkTopology.meter[11].interface$o.channel packets:count 410
attr interpolationmode none
attr recordingmode count
attr source constant1(messageSent)
scalar DNP3NetworkTopology.meter[11].interface$o.channel packetBytes:sum 132622
attr interpolationmode none
attr recordingmode sum
attr source packetBytes(messageSent)
attr unit B
scalar DNP3NetworkTopology.meter[11].interface$o.channel throughput:last 3541.0620242866
attr recordingmode last
attr source sumPerDuration(packetBits(messageSent))
attr unit bps
scalar DNP3NetworkTopology.meter[11].interface$o.channel utilization:last 0.054476579393092
attr recordingmode last
attr source timeavg(channelBusy)
par DNP3NetworkTopology.Concatenator.MeterInterface$o[11].channel typename "\"ned.DatarateChannel\""
par DNP3NetworkTopology.Concatenator.MeterInterface$o[11].channel disabled false
attr mutable ""
par DNP3NetworkTopology.Concatenator.MeterInterface$o[11].channel delay 0.002s
attr mutable ""
attr unit s
par DNP3NetworkTopology.Concatenator.MeterInterface$o[11].channel datarate 65000bps
attr mutable ""
attr unit bps
par DNP3NetworkTopology.Concatenator.MeterInterface$o[11].channel ber 0
attr mutable ""
par DNP3NetworkTopology.Concatenator.MeterInterface$o[11].channel per 0
attr mutable ""
scalar DNP3NetworkTopology.Concatenator.MeterInterface$o[11].channel packetsDiscarded:count 1
attr interpolationmode none
attr recordingmode count
attr source constant1(messageDiscarded)
scalar DNP3NetworkTopology.Concatenator.MeterInterface$o[11].channel packets:count 369
attr interpolationmode none
attr recordingmode count
attr source constant1(messageSent)
scalar DNP3NetworkTopology.Concatenator.MeterInterface$o[11].channel packetBytes:sum 23184
attr interpolationmode none
attr recordingmode sum
attr source packetBytes(messageSent)
attr unit B
scalar DNP3NetworkTopology.Concatenator.MeterInterface$o[11].channel throughput:last 619.04122982562
attr recordingmode last
attr source sumPerDuration(packetBits(messageSent))
attr unit bps
scalar DNP3NetworkTopology.Concatenator.MeterInterface$o[11].channel utilization:last 0.0095234843238895
attr recordingmode last
attr source timeavg(channelBusy)
par DNP3NetworkTopology.meter[12].interface$o.channel typename "\"ned.DatarateChannel\""
par DNP3NetworkTopology.meter[12].interface$o.channel disabled false
attr mutable ""
par DNP3NetworkTopology.meter[12].interface$o.channel delay 0.002s
attr mutable ""
attr unit s
par DNP3NetworkTopology.meter[12].interface$o.channel datarate 65000bps
attr mutable ""
attr unit bps
par DNP3NetworkTopology.meter[12].interface$o.channel ber 0
attr mutable ""
par DNP3NetworkTopology.meter[12].interface$o.channel per 0
attr mutable ""
scalar DNP3NetworkTopology.meter[12].interface$o.channel packetsDiscarded:count 1
attr interpolationmode none
attr recordingmode count
attr source constant1(messageDiscarded)
scalar DNP3NetworkTopology.meter[12].interface$o.channel packets:count 389
attr interpolationmode none
attr recordingmode count
attr source constant1(messageSent)
scalar DNP3NetworkTopology.meter[12].interface$o.channel packetBytes:sum 128016
attr interpolationmode none
attr recordingmode sum
attr source packetBytes(messageSent)
attr unit B
scalar DNP3NetworkTopology.meter[12].interface$o.channel throughput:last 3413.256872809
attr recordingmode last
attr source sumPerDuration(packetBits(messageSent))
attr unit bps
scalar DNP3NetworkTopology.meter[12].interface$o.channel utilization:last 0.052510394903061
attr recordingmode last
attr source timeavg(channelBusy)
par DNP3NetworkTopology.Concatenator.MeterInterface$o[12].channel typename "\"ned.DatarateChannel\""
par DNP3NetworkTopology.Concatenator.MeterInterface$o[12].channel disabled false
attr mutable ""
par DNP3NetworkTopology.Concatenator.MeterInterface$o[12].channel delay 0.002s
attr mutable ""
attr unit s
par DNP3NetworkTopology.Concatenator.MeterInterface$o[12].channel datarate 65000bps
attr mutable ""
attr unit bps
par DNP3NetworkTopology.Concatenator.MeterInterface$o[12].channel ber 0
attr mutable ""
par DNP3NetworkTopology.Concatenator.MeterInterface$o[12].channel per 0
attr mutable ""
scalar DNP3NetworkTopology.Concatenator.MeterInterface$o[12].channel packetsDiscarded:count 1
attr interpolationmode none
attr recordingmode count
attr source constant1(messageDiscarded)
scalar DNP3NetworkTopology.Concatenator.MeterInterface$o[12].channel packets:count 341
attr interpolationmode none
attr recordingmode count
attr source constant1(messageSent)
scalar DNP3NetworkTopology.Concatenator.MeterInterface$o[12].channel packetBytes:sum 21420
attr interpolationmode none
attr recordingmode sum
attr source packetBytes(messageSent)
attr unit B
scalar DNP3NetworkTopology.Concatenator.MeterInterface$o[12].channel throughput:last 571.13321036438
attr recordingmode last
attr source sumPerDuration(packetBits(messageSent))
attr unit bps
scalar DNP3NetworkTopology.Concatenator.MeterInterface$o[12].channel utilization:last 0.0087864557263034
attr recordingmode last
attr source timeavg(channelBusy)
par DNP3NetworkTopology.meter[13].interface$o.channel typename "\"ned.DatarateChannel\""
par DNP3NetworkTopology.meter[13].interface$o.channel disabled false
attr mutable ""
par DNP3NetworkTopology.meter[13].interface$o.channel delay 0.002s
attr mutable ""
attr unit s
par DNP3NetworkTopology.meter[13].interface$o.channel datarate 65000bps
attr mutable ""
attr unit bps
par DNP3NetworkTopology.meter[13].interface$o.channel ber 0
attr mutable ""
par DNP3NetworkTopology.meter[13].interface$o.channel per 0
attr mutable ""
scalar DNP3NetworkTopology.meter[13].interface$o.channel packetsDiscarded:count 1
attr interpolationmode none
attr recordingmode count
attr source constant1(messageDiscarded)
scalar DNP3NetworkTopology.meter[13].interface$o.channel packets:count 407
attr interpolationmode none
attr recordingmode count
attr source constant1(messageSent)
scalar DNP3NetworkTopology.meter[13].interface$o.channel packetBytes:sum 130996
attr interpolationmode none
attr recordingmode sum
attr source packetBytes(messageSent)
attr unit B
scalar DNP3NetworkTopology.meter[13].interface$o.channel throughput:last 3492.3175447725
attr recordingmode last
attr source sumPerDuration(packetBits(messageSent))
attr unit bps
scalar DNP3NetworkTopology.meter[13].interface$o.channel utilization:last 0.053726684140365
attr recordingmode last
attr source timeavg(channelBusy)
par DNP3NetworkTopology.Concatenator.MeterInterface$o[13].channel typename "\"ned.DatarateChannel\""
par DNP3NetworkTopology.Concatenator.MeterInterface$o[13].channel disabled false
attr mutable ""
par DNP3NetworkTopology.Concatenator.MeterInterface$o[13].channel delay 0.002s
attr mutable ""
attr unit s
par DNP3NetworkTopology.Concatenator.MeterInterface$o[13].channel datarate 65000bps
attr mutable ""
attr unit bps
par DNP3NetworkTopology.Concatenator.MeterInterface$o[13].channel ber 0
attr mutable ""
par DNP3NetworkTopology.Concatenator.MeterInterface$o[13].channel per 0
attr mutable ""
scalar DNP3NetworkTopology.Concatenator.MeterInterface$o[13].channel packetsDiscarded:count 1
attr interpolationmode none
attr recordingmode count
attr source constant1(messageDiscarded)
scalar DNP3NetworkTopology.Concatenator.MeterInterface$o[13].channel packets:count 369
attr interpolationmode none
attr recordingmode count
attr source constant1(messageSent)
scalar DNP3NetworkTopology.Concatenator.MeterInterface$o[13].channel packetBytes:sum 23184
attr interpolationmode none
attr recordingmode sum
attr source packetBytes(messageSent)
attr unit B
scalar DNP3NetworkTopology.Concatenator.MeterInterface$o[13].channel throughput:last 618.09792464499
attr recordingmode last
attr source sumPerDuration(packetBits(messageSent))
attr unit bps
scalar DNP3NetworkTopology.Concatenator.MeterInterface$o[13].channel utilization:last 0.0095089726274801
attr recordingmode last
attr source timeavg(channelBusy)
par DNP3NetworkTopology.meter[14].interface$o.channel typename "\"ned.DatarateChannel\""
par DNP3NetworkTopology.meter[14].interface$o.channel disabled false
attr mutable ""
par DNP3NetworkTopology.meter[14].interface$o.channel delay 0.002s
attr mutable ""
attr unit s
par DNP3NetworkTopology.meter[14].interface$o.channel datarate 65000bps
attr mutable ""
attr unit bps
par DNP3NetworkTopology.meter[14].interface$o.channel ber 0
attr mutable ""
par DNP3NetworkTopology.meter[14].interface$o.channel per 0
attr mutable ""
scalar DNP3NetworkTopology.meter[14].interface$o.channel packetsDiscarded:count 1
attr interpolationmode none
attr recordingmode count
attr source constant1(messageDiscarded)
scalar DNP3NetworkTopology.meter[14].interface$o.channel packets:count 461
attr interpolationmode none
attr recordingmode count
attr source constant1(messageSent)
scalar DNP3NetworkTopology.meter[14].interface$o.channel packetBytes:sum 141388
attr interpolationmode none
attr recordingmode sum
attr source packetBytes(messageSent)
attr unit B
scalar DNP3NetworkTopology.meter[14].interface$o.channel throughput:last 3748.4653605538
attr recordingmode last
attr source sumPerDuration(packetBits(messageSent))
attr unit bps
scalar DNP3NetworkTopology.meter[14].interface$o.channel utilization:last 0.057667333631286
attr recordingmode last
attr source timeavg(channelBusy)
par DNP3NetworkTopology.Concatenator.MeterInterface$o[14].channel typename "\"ned.DatarateChannel\""
par DNP3NetworkTopology.Concatenator.MeterInterface$o[14].channel disabled false
attr mutable ""
par DNP3NetworkTopology.Concatenator.MeterInterface$o[14].channel delay 0.002s
attr mutable ""
attr unit s
par DNP3NetworkTopology.Concatenator.MeterInterface$o[14].channel datarate 65000bps
attr mutable ""
attr unit bps
par DNP3NetworkTopology.Concatenator.MeterInterface$o[14].channel ber 0
attr mutable ""
par DNP3NetworkTopology.Concatenator.MeterInterface$o[14].channel per 0
attr mutable ""
scalar DNP3NetworkTopology.Concatenator.MeterInterface$o[14].channel packetsDiscarded:count 1
attr interpolationmode none
attr recordingmode count
attr source constant1(messageDiscarded)
scalar DNP3NetworkTopology.Concatenator.MeterInterface$o[14].channel packets:count 447
attr interpolationmode none
attr recordingmode count
attr source constant1(messageSent)
scalar DNP3NetworkTopology.Concatenator.MeterInterface$o[14].channel packetBytes:sum 28098
attr interpolationmode none
attr recordingmode sum
attr source packetBytes(messageSent)
attr unit B
scalar DNP3NetworkTopology.Concatenator.MeterInterface$o[14].channel throughput:last 744.95409455106
attr recordingmode last
attr source sumPerDuration(packetBits(messageSent))
attr unit bps
scalar DNP3NetworkTopology.Concatenator.MeterInterface$o[14].channel utilization:last 0.011460561095194
attr recordingmode last
attr source timeavg(channelBusy)
par DNP3NetworkTopology.meter[15].interface$o.channel typename "\"ned.DatarateChannel\""
par DNP3NetworkTopology.meter[15].interface$o.channel disabled false
attr mutable ""
par DNP3NetworkTopology.meter[15].interface$o.channel delay 0.002s
attr mutable ""
attr unit s
par DNP3NetworkTopology.meter[15].interface$o.channel datarate 65000bps
attr mutable ""
attr unit bps
par DNP3NetworkTopology.meter[15].interface$o.channel ber 0
attr mutable ""
par DNP3NetworkTopology.meter[15].interface$o.channel per 0
attr mutable ""
scalar DNP3NetworkTopology.meter[15].interface$o.channel packetsDiscarded:count 1
attr interpolationmode none
attr recordingmode count
attr source constant1(messageDiscarded)
scalar DNP3NetworkTopology.meter[15].interface$o.channel packets:count 477
attr interpolationmode none
attr recordingmode count
attr source constant1(messageSent)
scalar DNP3NetworkTopology.meter[15].interface$o.channel packetBytes:sum 143284
attr interpolationmode none
attr recordingmode sum
attr source packetBytes(messageSent)
attr unit B
scalar DNP3NetworkTopology.meter[15].interface$o.channel throughput:last 3825.3093279698
attr recordingmode last
attr source sumPerDuration(packetBits(messageSent))
attr unit bps
scalar DNP3NetworkTopology.meter[15].interface$o.channel utilization:last 0.05884951080779
attr recordingmode last
attr source timeavg(channelBusy)
par DNP3NetworkTopology.Concatenator.MeterInterface$o[15].channel typename "\"ned.DatarateChannel\""
par DNP3NetworkTopology.Concatenator.MeterInterface$o[15].channel disabled false
attr mutable ""
par DNP3NetworkTopology.Concatenator.MeterInterface$o[15].channel delay 0.002s
attr mutable ""
attr unit s
par DNP3NetworkTopology.Concatenator.MeterInterface$o[15].channel datarate 65000bps
attr mutable ""
attr unit bps
par DNP3NetworkTopology.Concatenator.MeterInterface$o[15].channel ber 0
attr mutable ""
par DNP3NetworkTopology.Concatenator.MeterInterface$o[15].channel per 0
attr mutable ""
scalar DNP3NetworkTopology.Concatenator.MeterInterface$o[15].channel packetsDiscarded:count 1
attr interpolationmode none
attr recordingmode count
attr source constant1(messageDiscarded)
scalar DNP3NetworkTopology.Concatenator.MeterInterface$o[15].channel packets:count 475
attr interpolationmode none
attr recordingmode count
attr source constant1(messageSent)
scalar DNP3NetworkTopology.Concatenator.MeterInterface$o[15].channel packetBytes:sum 29862
attr interpolationmode none
attr recordingmode sum
attr source packetBytes(messageSent)
attr unit B
scalar DNP3NetworkTopology.Concatenator.MeterInterface$o[15].channel throughput:last 797.26187802779
attr recordingmode last
attr source sumPerDuration(packetBits(messageSent))
attr unit bps
scalar DNP3NetworkTopology.Concatenator.MeterInterface$o[15].channel utilization:last 0.012265275157879
attr recordingmode last
attr source timeavg(channelBusy)
par DNP3NetworkTopology.meter[16].interface$o.channel typename "\"ned.DatarateChannel\""
par DNP3NetworkTopology.meter[16].interface$o.channel disabled false
attr mutable ""
par DNP3NetworkTopology.meter[16].interface$o.channel delay 0.002s
attr mutable ""
attr unit s
par DNP3NetworkTopology.meter[16].interface$o.channel datarate 65000bps
attr mutable ""
attr unit bps
par DNP3NetworkTopology.meter[16].interface$o.channel ber 0
attr mutable ""
par DNP3NetworkTopology.meter[16].interface$o.channel per 0
attr mutable ""
scalar DNP3NetworkTopology.meter[16].interface$o.channel packetsDiscarded:count 1
attr interpolationmode none
attr recordingmode count
attr source constant1(messageDiscarded)
scalar DNP3NetworkTopology.meter[16].interface$o.channel packets:count 477
attr interpolationmode none
attr recordingmode count
attr source constant1(messageSent)
scalar DNP3NetworkTopology.meter[16].interface$o.channel packetBytes:sum 143284
attr interpolationmode none
attr recordingmode sum
attr source packetBytes(messageSent)
attr unit B
scalar DNP3NetworkTopology.meter[16].interface$o.channel throughput:last 3824.8769379652
attr recordingmode last
attr source sumPerDuration(packetBits(messageSent))
attr unit bps
scalar DNP3NetworkTopology.meter[16].interface$o.channel utilization:last 0.058842858970782
attr recordingmode last
attr source timeavg(channelBusy)
par DNP3NetworkTopology.Concatenator.MeterInterface$o[16].channel typename "\"ned.DatarateChannel\""
par DNP3NetworkTopology.Concatenator.MeterInterface$o[16].channel disabled false
attr mutable ""
par DNP3NetworkTopology.Concatenator.MeterInterface$o[16].channel delay 0.002s
attr mutable ""
attr unit s
par DNP3NetworkTopology.Concatenator.MeterInterface$o[16].channel datarate 65000bps
attr mutable ""
attr unit bps
par DNP3NetworkTopology.Concatenator.MeterInterface$o[16].channel ber 0
attr mutable ""
par DNP3NetworkTopology.Concatenator.MeterInterface$o[16].channel per 0
attr mutable ""
scalar DNP3NetworkTopology.Concatenator.MeterInterface$o[16].channel packetsDiscarded:count 1
attr interpolationmode none
attr recordingmode count
attr source constant1(messageDiscarded)
scalar DNP3NetworkTopology.Concatenator.MeterInterface$o[16].channel packets:count 475
attr interpolationmode none
attr recordingmode count
attr source constant1(messageSent)
scalar DNP3NetworkTopology.Concatenator.MeterInterface$o[16].channel packetBytes:sum 29862
attr interpolationmode none
attr recordingmode sum
attr source packetBytes(messageSent)
attr unit B
scalar DNP3NetworkTopology.Concatenator.MeterInterface$o[16].channel throughput:last 797.17175758267
attr recordingmode last
attr source sumPerDuration(packetBits(messageSent))
attr unit bps
scalar DNP3NetworkTopology.Concatenator.MeterInterface$o[16].channel utilization:last 0.012263888755546
attr recordingmode last
attr source timeavg(channelBusy)
par DNP3NetworkTopology.meter[17].interface$o.channel typename "\"ned.DatarateChannel\""
par DNP3NetworkTopology.meter[17].interface$o.channel disabled false
attr mutable ""
par DNP3NetworkTopology.meter[17].interface$o.channel delay 0.002s
attr mutable ""
attr unit s
par DNP3NetworkTopology.meter[17].interface$o.channel datarate 65000bps
attr mutable ""
attr unit bps
par DNP3NetworkTopology.meter[17].interface$o.channel ber 0
attr mutable ""
par DNP3NetworkTopology.meter[17].interface$o.channel per 0
attr mutable ""
scalar DNP3NetworkTopology.meter[17].interface$o.channel packetsDiscarded:count 1
attr interpolationmode none
attr recordingmode count
attr source constant1(messageDiscarded)
scalar DNP3NetworkTopology.meter[17].interface$o.channel packets:count 474
attr interpolationmode none
attr recordingmode count
attr source constant1(messageSent)
scalar DNP3NetworkTopology.meter[17].interface$o.channel packetBytes:sum 142626
attr interpolationmode none
attr recordingmode sum
attr source packetBytes(messageSent)
attr unit B
scalar DNP3NetworkTopology.meter[17].interface$o.channel throughput:last 3806.8817316481
attr recordingmode last
attr source sumPerDuration(packetBits(messageSent))
attr unit bps
scalar DNP3NetworkTopology.meter[17].interface$o.channel utilization:last 0.058566016394775
attr recordingmode last
attr source timeavg(channelBusy)
par DNP3NetworkTopology.Concatenator.MeterInterface$o[17].channel typename "\"ned.DatarateChannel\""
par DNP3NetworkTopology.Concatenator.MeterInterface$o[17].channel disabled false
attr mutable ""
par DNP3NetworkTopology.Concatenator.MeterInterface$o[17].channel delay 0.002s
attr mutable ""
attr unit s
par DNP3NetworkTopology.Concatenator.MeterInterface$o[17].channel datarate 65000bps
attr mutable ""
attr unit bps
par DNP3NetworkTopology.Concatenator.MeterInterface$o[17].channel ber 0
attr mutable ""
par DNP3NetworkTopology.Concatenator.MeterInterface$o[17].channel per 0
attr mutable ""
scalar DNP3NetworkTopology.Concatenator.MeterInterface$o[17].channel packetsDiscarded:count 1
attr interpolationmode none
attr recordingmode count
attr source constant1(messageDiscarded)
scalar DNP3NetworkTopology.Concatenator.MeterInterface$o[17].channel packets:count 471
attr interpolationmode none
attr recordingmode count
attr source constant1(messageSent)
scalar DNP3NetworkTopology.Concatenator.MeterInterface$o[17].channel packetBytes:sum 29610
attr interpolationmode none
attr recordingmode sum
attr source packetBytes(messageSent)
attr unit B
scalar DNP3NetworkTopology.Concatenator.MeterInterface$o[17].channel throughput:last 790.3552300197
attr recordingmode last
attr source sumPerDuration(packetBits(messageSent))
attr unit bps
scalar DNP3NetworkTopology.Concatenator.MeterInterface$o[17].channel utilization:last 0.01215902163144
attr recordingmode last
attr source timeavg(channelBusy)
par DNP3NetworkTopology.meter[18].interface$o.channel typename "\"ned.DatarateChannel\""
par DNP3NetworkTopology.meter[18].interface$o.channel disabled false
attr mutable ""
par DNP3NetworkTopology.meter[18].interface$o.channel delay 0.002s
attr mutable ""
attr unit s
par DNP3NetworkTopology.meter[18].interface$o.channel datarate 65000bps
attr mutable ""
attr unit bps
par DNP3NetworkTopology.meter[18].interface$o.channel ber 0
attr mutable ""
par DNP3NetworkTopology.meter[18].interface$o.channel per 0
attr mutable ""
scalar DNP3NetworkTopology.meter[18].interface$o.channel packetsDiscarded:count 1
attr interpolationmode none
attr recordingmode count
attr source constant1(messageDiscarded)
scalar DNP3NetworkTopology.meter[18].interface$o.channel packets:count 461
attr interpolationmode none
attr recordingmode count
attr source constant1(messageSent)
scalar DNP3NetworkTopology.meter[18].interface$o.channel packetBytes:sum 140420
attr interpolationmode none
attr recordingmode sum
attr source packetBytes(messageSent)
attr unit B
scalar DNP3NetworkTopology.meter[18].interface$o.channel throughput:last 3747.5770385307
attr recordingmode last
attr source sumPerDuration(packetBits(messageSent))
attr unit bps
scalar DNP3NetworkTopology.meter[18].interface$o.channel utilization:last 0.057653658385392
attr recordingmode last
attr source timeavg(channelBusy)
par DNP3NetworkTopology.Concatenator.MeterInterface$o[18].channel typename "\"ned.DatarateChannel\""
par DNP3NetworkTopology.Concatenator.MeterInterface$o[18].channel disabled false
attr mutable ""
par DNP3NetworkTopology.Concatenator.MeterInterface$o[18].channel delay 0.002s
attr mutable ""
attr unit s
par DNP3NetworkTopology.Concatenator.MeterInterface$o[18].channel datarate 65000bps
attr mutable ""
attr unit bps
par DNP3NetworkTopology.Concatenator.MeterInterface$o[18].channel ber 0
attr mutable ""
par DNP3NetworkTopology.Concatenator.MeterInterface$o[18].channel per 0
attr mutable ""
scalar DNP3NetworkTopology.Concatenator.MeterInterface$o[18].channel packetsDiscarded:count 1
attr interpolationmode none
attr recordingmode count
attr source constant1(messageDiscarded)
scalar DNP3NetworkTopology.Concatenator.MeterInterface$o[18].channel packets:count 451
attr interpolationmode none
attr recordingmode count
attr source constant1(messageSent)
scalar DNP3NetworkTopology.Concatenator.MeterInterface$o[18].channel packetBytes:sum 28350
attr interpolationmode none
attr recordingmode sum
attr source packetBytes(messageSent)
attr unit B
scalar DNP3NetworkTopology.Concatenator.MeterInterface$o[18].channel throughput:last 756.63757386128
attr recordingmode last
attr source sumPerDuration(packetBits(messageSent))
attr unit bps
scalar DNP3NetworkTopology.Concatenator.MeterInterface$o[18].channel utilization:last 0.011640300845827
attr recordingmode last
attr source timeavg(channelBusy)
par DNP3NetworkTopology.meter[19].interface$o.channel typename "\"ned.DatarateChannel\""
par DNP3NetworkTopology.meter[19].interface$o.channel disabled false
attr mutable ""
par DNP3NetworkTopology.meter[19].interface$o.channel delay 0.002s
attr mutable ""
attr unit s
par DNP3NetworkTopology.meter[19].interface$o.channel datarate 65000bps
attr mutable ""
attr unit bps
par DNP3NetworkTopology.meter[19].interface$o.channel ber 0
attr mutable ""
par DNP3NetworkTopology.meter[19].interface$o.channel per 0
attr mutable ""
scalar DNP3NetworkTopology.meter[19].interface$o.channel packetsDiscarded:count 1
attr interpolationmode none
attr recordingmode count
attr source constant1(messageDiscarded)
scalar DNP3NetworkTopology.meter[19].interface$o.channel packets:count 469
attr interpolationmode none
attr recordingmode count
attr source constant1(messageSent)
scalar DNP3NetworkTopology.meter[19].interface$o.channel packetBytes:sum 141852
attr interpolationmode none
attr recordingmode sum
attr source packetBytes(messageSent)
attr unit B
scalar DNP3NetworkTopology.meter[19].interface$o.channel throughput:last 3785.3669663816
attr recordingmode last
attr source sumPerDuration(packetBits(messageSent))
attr unit bps
scalar DNP3NetworkTopology.meter[19].interface$o.channel utilization:last 0.058235028202624
attr recordingmode last
attr source timeavg(channelBusy)
par DNP3NetworkTopology.Concatenator.MeterInterface$o[19].channel typename "\"ned.DatarateChannel\""
par DNP3NetworkTopology.Concatenator.MeterInterface$o[19].channel disabled false
attr mutable ""
par DNP3NetworkTopology.Concatenator.MeterInterface$o[19].channel delay 0.002s
attr mutable ""
attr unit s
par DNP3NetworkTopology.Concatenator.MeterInterface$o[19].channel datarate 65000bps
attr mutable ""
attr unit bps
par DNP3NetworkTopology.Concatenator.MeterInterface$o[19].channel ber 0
attr mutable ""
par DNP3NetworkTopology.Concatenator.MeterInterface$o[19].channel per 0
attr mutable ""
scalar DNP3NetworkTopology.Concatenator.MeterInterface$o[19].channel packetsDiscarded:count 1
attr interpolationmode none
attr recordingmode count
attr source constant1(messageDiscarded)
scalar DNP3NetworkTopology.Concatenator.MeterInterface$o[19].channel packets:count 463
attr interpolationmode none
attr recordingmode count
attr source constant1(messageSent)
scalar DNP3NetworkTopology.Concatenator.MeterInterface$o[19].channel packetBytes:sum 29106
attr interpolationmode none
attr recordingmode sum
attr source packetBytes(messageSent)
attr unit B
scalar DNP3NetworkTopology.Concatenator.MeterInterface$o[19].channel throughput:last 776.72679646365
attr recordingmode last
attr source sumPerDuration(packetBits(messageSent))
attr unit bps
scalar DNP3NetworkTopology.Concatenator.MeterInterface$o[19].channel utilization:last 0.011949358480895
attr recordingmode last
attr source timeavg(channelBusy)
par DNP3NetworkTopology.meter[20].interface$o.channel typename "\"ned.DatarateChannel\""
par DNP3NetworkTopology.meter[20].interface$o.channel disabled false
attr mutable ""
par DNP3NetworkTopology.meter[20].interface$o.channel delay 0.002s
attr mutable ""
attr unit s
par DNP3NetworkTopology.meter[20].interface$o.channel datarate 65000bps
attr mutable ""
attr unit bps
par DNP3NetworkTopology.meter[20].interface$o.channel ber 0
attr mutable ""
par DNP3NetworkTopology.meter[20].interface$o.channel per 0
attr mutable ""
scalar DNP3NetworkTopology.meter[20].interface$o.channel packetsDiscarded:count 1
attr interpolationmode none
attr recordingmode count
attr source constant1(messageDiscarded)
scalar DNP3NetworkTopology.meter[20].interface$o.channel packets:count 361
attr interpolationmode none
attr recordingmode count
attr source constant1(messageSent)
scalar DNP3NetworkTopology.meter[20].interface$o.channel packetBytes:sum 122520
attr interpolationmode none
attr recordingmode sum
attr source packetBytes(messageSent)
attr unit B
scalar DNP3NetworkTopology.meter[20].interface$o.channel throughput:last 3269.1168340821
attr recordingmode last
attr source sumPerDuration(packetBits(messageSent))
attr unit bps
scalar DNP3NetworkTopology.meter[20].interface$o.channel utilization:last 0.050292907724319
attr recordingmode last
attr source timeavg(channelBusy)
par DNP3NetworkTopology.Concatenator.MeterInterface$o[20].channel typename "\"ned.DatarateChannel\""
par DNP3NetworkTopology.Concatenator.MeterInterface$o[20].channel disabled false
attr mutable ""
par DNP3NetworkTopology.Concatenator.MeterInterface$o[20].channel delay 0.002s
attr mutable ""
attr unit s
par DNP3NetworkTopology.Concatenator.MeterInterface$o[20].channel datarate 65000bps
attr mutable ""
attr unit bps
par DNP3NetworkTopology.Concatenator.MeterInterface$o[20].channel ber 0
attr mutable ""
par DNP3NetworkTopology.Concatenator.MeterInterface$o[20].channel per 0
attr mutable ""
scalar DNP3NetworkTopology.Concatenator.MeterInterface$o[20].channel packetsDiscarded:count 1
attr interpolationmode none
attr recordingmode count
attr source constant1(messageDiscarded)
scalar DNP3NetworkTopology.Concatenator.MeterInterface$o[20].channel packets:count 301
attr interpolationmode none
attr recordingmode count
attr source constant1(messageSent)
scalar DNP3NetworkTopology.Concatenator.MeterInterface$o[20].channel packetBytes:sum 18900
attr interpolationmode none
attr recordingmode sum
attr source packetBytes(messageSent)
attr unit B
scalar DNP3NetworkTopology.Concatenator.MeterInterface$o[20].channel throughput:last 504.31106294294
attr recordingmode last
attr source sumPerDuration(packetBits(messageSent))
attr unit bps
scalar DNP3NetworkTopology.Concatenator.MeterInterface$o[20].channel utilization:last 0.0077584470120454
attr recordingmode last
attr source timeavg(channelBusy)
par DNP3NetworkTopology.meter[21].interface$o.channel typename "\"ned.DatarateChannel\""
par DNP3NetworkTopology.meter[21].interface$o.channel disabled false
attr mutable ""
par DNP3NetworkTopology.meter[21].interface$o.channel delay 0.002s
attr mutable ""
attr unit s
par DNP3NetworkTopology.meter[21].interface$o.channel datarate 65000bps
attr mutable ""
attr unit bps
par DNP3NetworkTopology.meter[21].interface$o.channel ber 0
attr mutable ""
par DNP3NetworkTopology.meter[21].interface$o.channel per 0
attr mutable ""
scalar DNP3NetworkTopology.meter[21].interface$o.channel packetsDiscarded:count 1
attr interpolationmode none
attr recordingmode count
attr source constant1(messageDiscarded)
scalar DNP3NetworkTopology.meter[21].interface$o.channel packets:count 393
attr interpolationmode none
attr recordingmode count
attr source constant1(messageSent)
scalar DNP3NetworkTopology.meter[21].interface$o.channel packetBytes:sum 128248
attr interpolationmode none
attr recordingmode sum
attr source packetBytes(messageSent)
attr unit B
scalar DNP3NetworkTopology.meter[21].interface$o.channel throughput:last 3418.6706916601
attr recordingmode last
attr source sumPerDuration(packetBits(messageSent))
attr unit bps
scalar DNP3NetworkTopology.meter[21].interface$o.channel utilization:last 0.052593682724784
attr recordingmode last
attr source timeavg(channelBusy)
par DNP3NetworkTopology.Concatenator.MeterInterface$o[21].channel typename "\"ned.DatarateChannel\""
par DNP3NetworkTopology.Concatenator.MeterInterface$o[21].channel disabled false
attr mutable ""
par DNP3NetworkTopology.Concatenator.MeterInterface$o[21].channel delay 0.002s
attr mutable ""
attr unit s
par DNP3NetworkTopology.Concatenator.MeterInterface$o[21].channel datarate 65000bps
attr mutable ""
attr unit bps
par DNP3NetworkTopology.Concatenator.MeterInterface$o[21].channel ber 0
attr mutable ""
par DNP3NetworkTopology.Concatenator.MeterInterface$o[21].channel per 0
attr mutable ""
scalar DNP3NetworkTopology.Concatenator.MeterInterface$o[21].channel packetsDiscarded:count 1
attr interpolationmode none
attr recordingmode count
attr source constant1(messageDiscarded)
scalar DNP3NetworkTopology.Concatenator.MeterInterface$o[21].channel packets:count 349
attr interpolationmode none
attr recordingmode count
attr source constant1(messageSent)
scalar DNP3NetworkTopology.Concatenator.MeterInterface$o[21].channel packetBytes:sum 21924
attr interpolationmode none
attr recordingmode sum
attr source packetBytes(messageSent)
attr unit B
scalar DNP3NetworkTopology.Concatenator.MeterInterface$o[21].channel throughput:last 584.43966831805
attr recordingmode last
attr source sumPerDuration(packetBits(messageSent))
attr unit bps
scalar DNP3NetworkTopology.Concatenator.MeterInterface$o[21].channel utilization:last 0.0089911656418598
attr recordingmode last
attr source timeavg(channelBusy)
par DNP3NetworkTopology.meter[22].interface$o.channel typename "\"ned.DatarateChannel\""
par DNP3NetworkTopology.meter[22].interface$o.channel disabled false
attr mutable ""
par DNP3NetworkTopology.meter[22].interface$o.channel delay 0.002s
attr mutable ""
attr unit s
par DNP3NetworkTopology.meter[22].interface$o.channel datarate 65000bps
attr mutable ""
attr unit bps
par DNP3NetworkTopology.meter[22].interface$o.channel ber 0
attr mutable ""
par DNP3NetworkTopology.meter[22].interface$o.channel per 0
attr mutable ""
scalar DNP3NetworkTopology.meter[22].interface$o.channel packetsDiscarded:count 1
attr interpolationmode none
attr recordingmode count
attr source constant1(messageDiscarded)
scalar DNP3NetworkTopology.meter[22].interface$o.channel packets:count 389
attr interpolationmode none
attr recordingmode count
attr source constant1(messageSent)
scalar DNP3NetworkTopology.meter[22].interface$o.channel packetBytes:sum 127532
attr interpolationmode none
attr recordingmode sum
attr source packetBytes(messageSent)
attr unit B
scalar DNP3NetworkTopology.meter[22].interface$o.channel throughput:last 3402.4641601958
attr recordingmode last
attr source sumPerDuration(packetBits(messageSent))
attr unit bps
scalar DNP3NetworkTopology.meter[22].interface$o.channel utilization:last 0.052344356347314
attr recordingmode last
attr source timeavg(channelBusy)
par DNP3NetworkTopology.Concatenator.MeterInterface$o[22].channel typename "\"ned.DatarateChannel\""
par DNP3NetworkTopology.Concatenator.MeterInterface$o[22].channel disabled false
attr mutable ""
par DNP3NetworkTopology.Concatenator.MeterInterface$o[22].channel delay 0.002s
attr mutable ""
attr unit s
par DNP3NetworkTopology.Concatenator.MeterInterface$o[22].channel datarate 65000bps
attr mutable ""
attr unit bps
par DNP3NetworkTopology.Concatenator.MeterInterface$o[22].channel ber 0
attr mutable ""
par DNP3NetworkTopology.Concatenator.MeterInterface$o[22].channel per 0
attr mutable ""
scalar DNP3NetworkTopology.Concatenator.MeterInterface$o[22].channel packetsDiscarded:count 1
attr interpolationmode none
attr recordingmode count
attr source constant1(messageDiscarded)
scalar DNP3NetworkTopology.Concatenator.MeterInterface$o[22].channel packets:count 343
attr interpolationmode none
attr recordingmode count
attr source constant1(messageSent)
scalar DNP3NetworkTopology.Concatenator.MeterInterface$o[22].channel packetBytes:sum 21546
attr interpolationmode none
attr recordingmode sum
attr source packetBytes(messageSent)
attr unit B
scalar DNP3NetworkTopology.Concatenator.MeterInterface$o[22].channel throughput:last 574.84966158557
attr recordingmode last
attr source sumPerDuration(packetBits(messageSent))
attr unit bps
scalar DNP3NetworkTopology.Concatenator.MeterInterface$o[22].channel utilization:last 0.0088436304079349
attr recordingmode last
attr source timeavg(channelBusy)
par DNP3NetworkTopology.meter[23].interface$o.channel typename "\"ned.DatarateChannel\""
par DNP3NetworkTopology.meter[23].interface$o.channel disabled false
attr mutable ""
par DNP3NetworkTopology.meter[23].interface$o.channel delay 0.002s
attr mutable ""
attr unit s
par DNP3NetworkTopology.meter[23].interface$o.channel datarate 65000bps
attr mutable ""
attr unit bps
par DNP3NetworkTopology.meter[23].interface$o.channel ber 0
attr mutable ""
par DNP3NetworkTopology.meter[23].interface$o.channel per 0
attr mutable ""
scalar DNP3NetworkTopology.meter[23].interface$o.channel packetsDiscarded:count 1
attr interpolationmode none
attr recordingmode count
attr source constant1(messageDiscarded)
scalar DNP3NetworkTopology.meter[23].interface$o.channel packets:count 333
attr interpolationmode none
attr recordingmode count
attr source constant1(messageSent)
scalar DNP3NetworkTopology.meter[23].interface$o.channel packetBytes:sum 117508
attr interpolationmode none
attr recordingmode sum
attr source packetBytes(messageSent)
attr unit B
scalar DNP3NetworkTopology.meter[23].interface$o.channel throughput:last 3134.676757826
attr recordingmode last
attr source sumPerDuration(packetBits(messageSent))
attr unit bps
scalar DNP3NetworkTopology.meter[23].interface$o.channel utilization:last 0.048224648361094
attr recordingmode last
attr source timeavg(channelBusy)
par DNP3NetworkTopology.Concatenator.MeterInterface$o[23].channel typename "\"ned.DatarateChannel\""
par DNP3NetworkTopology.Concatenator.MeterInterface$o[23].channel disabled false
attr mutable ""
par DNP3NetworkTopology.Concatenator.MeterInterface$o[23].channel delay 0.002s
attr mutable ""
attr unit s
par DNP3NetworkTopology.Concatenator.MeterInterface$o[23].channel datarate 65000bps
attr mutable ""
attr unit bps
par DNP3NetworkTopology.Concatenator.MeterInterface$o[23].channel ber 0
attr mutable ""
par DNP3NetworkTopology.Concatenator.MeterInterface$o[23].channel per 0
attr mutable ""
scalar DNP3NetworkTopology.Concatenator.MeterInterface$o[23].channel packetsDiscarded:count 1
attr interpolationmode none
attr recordingmode count
attr source constant1(messageDiscarded)
scalar DNP3NetworkTopology.Concatenator.MeterInterface$o[23].channel packets:count 259
attr interpolationmode none
attr recordingmode count
attr source constant1(messageSent)
scalar DNP3NetworkTopology.Concatenator.MeterInterface$o[23].channel packetBytes:sum 16254
attr interpolationmode none
attr recordingmode sum
attr source packetBytes(messageSent)
attr unit B
scalar DNP3NetworkTopology.Concatenator.MeterInterface$o[23].channel throughput:last 433.60953020812
attr recordingmode last
attr source sumPerDuration(packetBits(messageSent))
attr unit bps
scalar DNP3NetworkTopology.Concatenator.MeterInterface$o[23].channel utilization:last 0.0066707570571653
attr recordingmode last
attr source timeavg(channelBusy)
par DNP3NetworkTopology.meter[24].interface$o.channel typename "\"ned.DatarateChannel\""
par DNP3NetworkTopology.meter[24].interface$o.channel disabled false
attr mutable ""
par DNP3NetworkTopology.meter[24].interface$o.channel delay 0.002s
attr mutable ""
attr unit s
par DNP3NetworkTopology.meter[24].interface$o.channel datarate 65000bps
attr mutable ""
attr unit bps
par DNP3NetworkTopology.meter[24].interface$o.channel ber 0
attr mutable ""
par DNP3NetworkTopology.meter[24].interface$o.channel per 0
attr mutable ""
scalar DNP3NetworkTopology.meter[24].interface$o.channel packetsDiscarded:count 1
attr interpolationmode none
attr recordingmode count
attr source constant1(messageDiscarded)
scalar DNP3NetworkTopology.meter[24].interface$o.channel packets:count 321
attr interpolationmode none
attr recordingmode count
attr source constant1(messageSent)
scalar DNP3NetworkTopology.meter[24].interface$o.channel packetBytes:sum 115360
attr interpolationmode none
attr recordingmode sum
attr source packetBytes(messageSent)
attr unit B
scalar DNP3NetworkTopology.meter[24].interface$o.channel throughput:last 3074.7718545036
attr recordingmode last
attr source sumPerDuration(packetBits(messageSent))
attr unit bps
scalar DNP3NetworkTopology.meter[24].interface$o.channel utilization:last 0.047303057353748
attr recordingmode last
attr source timeavg(channelBusy)
par DNP3NetworkTopology.Concatenator.MeterInterface$o[24].channel typename "\"ned.DatarateChannel\""
par DNP3NetworkTopology.Concatenator.MeterInterface$o[24].channel disabled false
attr mutable ""
par DNP3NetworkTopology.Concatenator.MeterInterface$o[24].channel delay 0.002s
attr mutable ""
attr unit s
par DNP3NetworkTopology.Concatenator.MeterInterface$o[24].channel datarate 65000bps
attr mutable ""
attr unit bps
par DNP3NetworkTopology.Concatenator.MeterInterface$o[24].channel ber 0
attr mutable ""
par DNP3NetworkTopology.Concatenator.MeterInterface$o[24].channel per 0
attr mutable ""
scalar DNP3NetworkTopology.Concatenator.MeterInterface$o[24].channel packetsDiscarded:count 1
attr interpolationmode none
attr recordingmode count
attr source constant1(messageDiscarded)
scalar DNP3NetworkTopology.Concatenator.MeterInterface$o[24].channel packets:count 241
attr interpolationmode none
attr recordingmode count
attr source constant1(messageSent)
scalar DNP3NetworkTopology.Concatenator.MeterInterface$o[24].channel packetBytes:sum 15120
attr interpolationmode none
attr recordingmode sum
attr source packetBytes(messageSent)
attr unit B
scalar DNP3NetworkTopology.Concatenator.MeterInterface$o[24].channel throughput:last 403.01634855009
attr recordingmode last
attr source sumPerDuration(packetBits(messageSent))
attr unit bps
scalar DNP3NetworkTopology.Concatenator.MeterInterface$o[24].channel utilization:last 0.0062001040523954
attr recordingmode last
attr source timeavg(channelBusy)
par DNP3NetworkTopology.meter[25].interface$o.channel typename "\"ned.DatarateChannel\""
par DNP3NetworkTopology.meter[25].interface$o.channel disabled false
attr mutable ""
par DNP3NetworkTopology.meter[25].interface$o.channel delay 0.002s
attr mutable ""
attr unit s
par DNP3NetworkTopology.meter[25].interface$o.channel datarate 65000bps
attr mutable ""
attr unit bps
par DNP3NetworkTopology.meter[25].interface$o.channel ber 0
attr mutable ""
par DNP3NetworkTopology.meter[25].interface$o.channel per 0
attr mutable ""
scalar DNP3NetworkTopology.meter[25].interface$o.channel packetsDiscarded:count 1
attr interpolationmode none
attr recordingmode count
attr source constant1(messageDiscarded)
scalar DNP3NetworkTopology.meter[25].interface$o.channel packets:count 329
attr interpolationmode none
attr recordingmode count
attr source constant1(messageSent)
scalar DNP3NetworkTopology.meter[25].interface$o.channel packetBytes:sum 116792
attr interpolationmode none
attr recordingmode sum
attr source packetBytes(messageSent)
attr unit B
scalar DNP3NetworkTopology.meter[25].interface$o.channel throughput:last 3112.5886732407
attr recordingmode last
attr source sumPerDuration(packetBits(messageSent))
attr unit bps
scalar DNP3NetworkTopology.meter[25].interface$o.channel utilization:last 0.047884840856863
attr recordingmode last
attr source timeavg(channelBusy)
par DNP3NetworkTopology.Concatenator.MeterInterface$o[25].channel typename "\"ned.DatarateChannel\""
par DNP3NetworkTopology.Concatenator.MeterInterface$o[25].channel disabled false
attr mutable ""
par DNP3NetworkTopology.Concatenator.MeterInterface$o[25].channel delay 0.002s
attr mutable ""
attr unit s
par DNP3NetworkTopology.Concatenator.MeterInterface$o[25].channel datarate 65000bps
attr mutable ""
attr unit bps
par DNP3NetworkTopology.Concatenator.MeterInterface$o[25].channel ber 0
attr mutable ""
par DNP3NetworkTopology.Concatenator.MeterInterface$o[25].channel per 0
attr mutable ""
scalar DNP3NetworkTopology.Concatenator.MeterInterface$o[25].channel packetsDiscarded:count 1
attr interpolationmode none
attr recordingmode count
attr source constant1(messageDiscarded)
scalar DNP3NetworkTopology.Concatenator.MeterInterface$o[25].channel packets:count 253
attr interpolationmode none
attr recordingmode count
attr source constant1(messageSent)
scalar DNP3NetworkTopology.Concatenator.MeterInterface$o[25].channel packetBytes:sum 15876
attr interpolationmode none
attr recordingmode sum
attr source packetBytes(messageSent)
attr unit B
scalar DNP3NetworkTopology.Concatenator.MeterInterface$o[25].channel throughput:last 423.11941050596
attr recordingmode last
attr source sumPerDuration(packetBits(messageSent))
attr unit bps
scalar DNP3NetworkTopology.Concatenator.MeterInterface$o[25].channel utilization:last 0.0065093745903966
attr recordingmode last
attr source timeavg(channelBusy)
par DNP3NetworkTopology.meter[26].interface$o.channel typename "\"ned.DatarateChannel\""
par DNP3NetworkTopology.meter[26].interface$o.channel disabled false
attr mutable ""
par DNP3NetworkTopology.meter[26].interface$o.channel delay 0.002s
attr mutable ""
attr unit s
par DNP3NetworkTopology.meter[26].interface$o.channel datarate 65000bps
attr mutable ""
attr unit bps
par DNP3NetworkTopology.meter[26].interface$o.channel ber 0
attr mutable ""
par DNP3NetworkTopology.meter[26].interface$o.channel per 0
attr mutable ""
scalar DNP3NetworkTopology.meter[26].interface$o.channel packetsDiscarded:count 1
attr interpolationmode none
attr recordingmode count
attr source constant1(messageDiscarded)
scalar DNP3NetworkTopology.meter[26].interface$o.channel packets:count 333
attr interpolationmode none
attr recordingmode count
attr source constant1(messageSent)
scalar DNP3NetworkTopology.meter[26].interface$o.channel packetBytes:sum 117992
attr interpolationmode none
attr recordingmode sum
attr source packetBytes(messageSent)
attr unit B
scalar DNP3NetworkTopology.meter[26].interface$o.channel throughput:last 3127.8416728664
attr recordingmode last
attr source sumPerDuration(packetBits(messageSent))
attr unit bps
scalar DNP3NetworkTopology.meter[26].interface$o.channel utilization:last 0.048119502896433
attr recordingmode last
attr source timeavg(channelBusy)
par DNP3NetworkTopology.Concatenator.MeterInterface$o[26].channel typename "\"ned.DatarateChannel\""
par DNP3NetworkTopology.Concatenator.MeterInterface$o[26].channel disabled false
attr mutable ""
par DNP3NetworkTopology.Concatenator.MeterInterface$o[26].channel delay 0.002s
attr mutable ""
attr unit s
par DNP3NetworkTopology.Concatenator.MeterInterface$o[26].channel datarate 65000bps
attr mutable ""
attr unit bps
par DNP3NetworkTopology.Concatenator.MeterInterface$o[26].channel ber 0
attr mutable ""
par DNP3NetworkTopology.Concatenator.MeterInterface$o[26].channel per 0
attr mutable ""
scalar DNP3NetworkTopology.Concatenator.MeterInterface$o[26].channel packetsDiscarded:count 1
attr interpolationmode none
attr recordingmode count
attr source constant1(messageDiscarded)
scalar DNP3NetworkTopology.Concatenator.MeterInterface$o[26].channel packets:count 257
attr interpolationmode none
attr recordingmode count
attr source constant1(messageSent)
scalar DNP3NetworkTopology.Concatenator.MeterInterface$o[26].channel packetBytes:sum 16128
attr interpolationmode none
attr recordingmode sum
attr source packetBytes(messageSent)
attr unit B
scalar DNP3NetworkTopology.Concatenator.MeterInterface$o[26].channel throughput:last 427.54897039065
attr recordingmode last
attr source sumPerDuration(packetBits(messageSent))
attr unit bps
scalar DNP3NetworkTopology.Concatenator.MeterInterface$o[26].channel utilization:last 0.0065775208770609
attr recordingmode last
attr source timeavg(channelBusy)
par DNP3NetworkTopology.meter[27].interface$o.channel typename "\"ned.DatarateChannel\""
par DNP3NetworkTopology.meter[27].interface$o.channel disabled false
attr mutable ""
par DNP3NetworkTopology.meter[27].interface$o.channel delay 0.002s
attr mutable ""
attr unit s
par DNP3NetworkTopology.meter[27].interface$o.channel datarate 65000bps
attr mutable ""
attr unit bps
par DNP3NetworkTopology.meter[27].interface$o.channel ber 0
attr mutable ""
par DNP3NetworkTopology.meter[27].interface$o.channel per 0
attr mutable ""
scalar DNP3NetworkTopology.meter[27].interface$o.channel packetsDiscarded:count 1
attr interpolationmode none
attr recordingmode count
attr source constant1(messageDiscarded)
scalar DNP3NetworkTopology.meter[27].interface$o.channel packets:count 324
attr interpolationmode none
attr recordingmode count
attr source constant1(messageSent)
scalar DNP3NetworkTopology.meter[27].interface$o.channel packetBytes:sum 116018
attr interpolationmode none
attr recordingmode sum
attr source packetBytes(messageSent)
attr unit B
scalar DNP3NetworkTopology.meter[27].interface$o.channel throughput:last 3091.6121451221
attr recordingmode last
attr source sumPerDuration(packetBits(messageSent))
attr unit bps
scalar DNP3NetworkTopology.meter[27].interface$o.channel utilization:last 0.047562132841482
attr recordingmode last
attr source timeavg(channelBusy)
par DNP3NetworkTopology.Concatenator.MeterInterface$o[27].channel typename "\"ned.DatarateChannel\""
par DNP3NetworkTopology.Concatenator.MeterInterface$o[27].channel disabled false
attr mutable ""
par DNP3NetworkTopology.Concatenator.MeterInterface$o[27].channel delay 0.002s
attr mutable ""
[...]
scalar DNP3NetworkTopology.meter[15] generatedEventPackets 237
par DNP3NetworkTopology.meter[16] typename "\"basicbaseline.DNP3SmartMeter\""
par DNP3NetworkTopology.meter[16] meterId 16
par DNP3NetworkTopology.meter[16] totalPackets 500
par DNP3NetworkTopology.meter[16] eventBytes 542
par DNP3NetworkTopology.meter[16] ackTimeout 2s
attr unit s
par DNP3NetworkTopology.meter[16] eventInterval 0.5s
attr unit s
par DNP3NetworkTopology.meter[16] stopGenerationTime 300s
attr unit s
scalar DNP3NetworkTopology.meter[16] retransmissions 2
scalar DNP3NetworkTopology.meter[16] generatedEventPackets 237
par DNP3NetworkTopology.meter[17] typename "\"basicbaseline.DNP3SmartMeter\""
par DNP3NetworkTopology.meter[17] meterId 17
par DNP3NetworkTopology.meter[17] totalPackets 500
par DNP3NetworkTopology.meter[17] eventBytes 542
par DNP3NetworkTopology.meter[17] ackTimeout 2s
attr unit s
par DNP3NetworkTopology.meter[17] eventInterval 0.5s
attr unit s
par DNP3NetworkTopology.meter[17] stopGenerationTime 300s
attr unit s
scalar DNP3NetworkTopology.meter[17] retransmissions 3
scalar DNP3NetworkTopology.meter[17] generatedEventPackets 235
par DNP3NetworkTopology.meter[18] typename "\"basicbaseline.DNP3SmartMeter\""
par DNP3NetworkTopology.meter[18] meterId 18
par DNP3NetworkTopology.meter[18] totalPackets 500
par DNP3NetworkTopology.meter[18] eventBytes 542
par DNP3NetworkTopology.meter[18] ackTimeout 2s
attr unit s
par DNP3NetworkTopology.meter[18] eventInterval 0.5s
attr unit s
par DNP3NetworkTopology.meter[18] stopGenerationTime 300s
attr unit s
scalar DNP3NetworkTopology.meter[18] retransmissions 10
scalar DNP3NetworkTopology.meter[18] generatedEventPackets 225
par DNP3NetworkTopology.meter[19] typename "\"basicbaseline.DNP3SmartMeter\""
par DNP3NetworkTopology.meter[19] meterId 19
par DNP3NetworkTopology.meter[19] totalPackets 500
par DNP3NetworkTopology.meter[19] eventBytes 542
par DNP3NetworkTopology.meter[19] ackTimeout 2s
attr unit s
par DNP3NetworkTopology.meter[19] eventInterval 0.5s
attr unit s
par DNP3NetworkTopology.meter[19] stopGenerationTime 300s
attr unit s
scalar DNP3NetworkTopology.meter[19] retransmissions 6
scalar DNP3NetworkTopology.meter[19] generatedEventPackets 231
par DNP3NetworkTopology.meter[20] typename "\"basicbaseline.DNP3SmartMeter\""
par DNP3NetworkTopology.meter[20] meterId 20
par DNP3NetworkTopology.meter[20] totalPackets 500
par DNP3NetworkTopology.meter[20] eventBytes 542
par DNP3NetworkTopology.meter[20] ackTimeout 2s
attr unit s
par DNP3NetworkTopology.meter[20] eventInterval 0.5s
attr unit s
par DNP3NetworkTopology.meter[20] stopGenerationTime 300s
attr unit s
scalar DNP3NetworkTopology.meter[20] retransmissions 60
scalar DNP3NetworkTopology.meter[20] generatedEventPackets 150
par DNP3NetworkTopology.meter[21] typename "\"basicbaseline.DNP3SmartMeter\""
par DNP3NetworkTopology.meter[21] meterId 21
par DNP3NetworkTopology.meter[21] totalPackets 500
par DNP3NetworkTopology.meter[21] eventBytes 542
par DNP3NetworkTopology.meter[21] ackTimeout 2s
attr unit s
par DNP3NetworkTopology.meter[21] eventInterval 0.5s
attr unit s
par DNP3NetworkTopology.meter[21] stopGenerationTime 300s
attr unit s
scalar DNP3NetworkTopology.meter[21] retransmissions 44
scalar DNP3NetworkTopology.meter[21] generatedEventPackets 174
par DNP3NetworkTopology.meter[22] typename "\"basicbaseline.DNP3SmartMeter\""
par DNP3NetworkTopology.meter[22] meterId 22
par DNP3NetworkTopology.meter[22] totalPackets 500
par DNP3NetworkTopology.meter[22] eventBytes 542
par DNP3NetworkTopology.meter[22] ackTimeout 2s
attr unit s
par DNP3NetworkTopology.meter[22] eventInterval 0.5s
attr unit s
par DNP3NetworkTopology.meter[22] stopGenerationTime 300s
attr unit s
scalar DNP3NetworkTopology.meter[22] retransmissions 46
scalar DNP3NetworkTopology.meter[22] generatedEventPackets 171
par DNP3NetworkTopology.meter[23] typename "\"basicbaseline.DNP3SmartMeter\""
par DNP3NetworkTopology.meter[23] meterId 23
par DNP3NetworkTopology.meter[23] totalPackets 500
par DNP3NetworkTopology.meter[23] eventBytes 542
par DNP3NetworkTopology.meter[23] ackTimeout 2s
attr unit s
par DNP3NetworkTopology.meter[23] eventInterval 0.5s
attr unit s
par DNP3NetworkTopology.meter[23] stopGenerationTime 300s
attr unit s
scalar DNP3NetworkTopology.meter[23] retransmissions 74
scalar DNP3NetworkTopology.meter[23] generatedEventPackets 129
par DNP3NetworkTopology.meter[24] typename "\"basicbaseline.DNP3SmartMeter\""
par DNP3NetworkTopology.meter[24] meterId 24
par DNP3NetworkTopology.meter[24] totalPackets 500
par DNP3NetworkTopology.meter[24] eventBytes 542
par DNP3NetworkTopology.meter[24] ackTimeout 2s
attr unit s
par DNP3NetworkTopology.meter[24] eventInterval 0.5s
attr unit s
par DNP3NetworkTopology.meter[24] stopGenerationTime 300s
attr unit s
scalar DNP3NetworkTopology.meter[24] retransmissions 80
scalar DNP3NetworkTopology.meter[24] generatedEventPackets 120
par DNP3NetworkTopology.meter[25] typename "\"basicbaseline.DNP3SmartMeter\""
par DNP3NetworkTopology.meter[25] meterId 25
par DNP3NetworkTopology.meter[25] totalPackets 500
par DNP3NetworkTopology.meter[25] eventBytes 542
par DNP3NetworkTopology.meter[25] ackTimeout 2s
attr unit s
par DNP3NetworkTopology.meter[25] eventInterval 0.5s
attr unit s
par DNP3NetworkTopology.meter[25] stopGenerationTime 300s
attr unit s
scalar DNP3NetworkTopology.meter[25] retransmissions 76
scalar DNP3NetworkTopology.meter[25] generatedEventPackets 126
par DNP3NetworkTopology.meter[26] typename "\"basicbaseline.DNP3SmartMeter\""
par DNP3NetworkTopology.meter[26] meterId 26
par DNP3NetworkTopology.meter[26] totalPackets 500
par DNP3NetworkTopology.meter[26] eventBytes 542
par DNP3NetworkTopology.meter[26] ackTimeout 2s
attr unit s
par DNP3NetworkTopology.meter[26] eventInterval 0.5s
attr unit s
par DNP3NetworkTopology.meter[26] stopGenerationTime 300s
attr unit s
scalar DNP3NetworkTopology.meter[26] retransmissions 76
scalar DNP3NetworkTopology.meter[26] generatedEventPackets 128
par DNP3NetworkTopology.meter[27] typename "\"basicbaseline.DNP3SmartMeter\""
par DNP3NetworkTopology.meter[27] meterId 27
par DNP3NetworkTopology.meter[27] totalPackets 500
par DNP3NetworkTopology.meter[27] eventBytes 542
par DNP3NetworkTopology.meter[27] ackTimeout 2s
attr unit s
par DNP3NetworkTopology.meter[27] eventInterval 0.5s
attr unit s
par DNP3NetworkTopology.meter[27] stopGenerationTime 300s
attr unit s
scalar DNP3NetworkTopology.meter[27] retransmissions 79
scalar DNP3NetworkTopology.meter[27] generatedEventPackets 122
par DNP3NetworkTopology.meter[28] typename "\"basicbaseline.DNP3SmartMeter\""
par DNP3NetworkTopology.meter[28] meterId 28
par DNP3NetworkTopology.meter[28] totalPackets 500
par DNP3NetworkTopology.meter[28] eventBytes 542
par DNP3NetworkTopology.meter[28] ackTimeout 2s
attr unit s
par DNP3NetworkTopology.meter[28] eventInterval 0.5s
attr unit s
par DNP3NetworkTopology.meter[28] stopGenerationTime 300s
attr unit s
scalar DNP3NetworkTopology.meter[28] retransmissions 75
scalar DNP3NetworkTopology.meter[28] generatedEventPackets 129
par DNP3NetworkTopology.meter[29] typename "\"basicbaseline.DNP3SmartMeter\""
par DNP3NetworkTopology.meter[29] meterId 29
par DNP3NetworkTopology.meter[29] totalPackets 500
par DNP3NetworkTopology.meter[29] eventBytes 542
par DNP3NetworkTopology.meter[29] ackTimeout 2s
attr unit s
par DNP3NetworkTopology.meter[29] eventInterval 0.5s
attr unit s
par DNP3NetworkTopology.meter[29] stopGenerationTime 300s
attr unit s
scalar DNP3NetworkTopology.meter[29] retransmissions 75
scalar DNP3NetworkTopology.meter[29] generatedEventPackets 129
par DNP3NetworkTopology.meter[30] typename "\"basicbaseline.DNP3SmartMeter\""
par DNP3NetworkTopology.meter[30] meterId 30
par DNP3NetworkTopology.meter[30] totalPackets 500
par DNP3NetworkTopology.meter[30] eventBytes 542
par DNP3NetworkTopology.meter[30] ackTimeout 2s
attr unit s
par DNP3NetworkTopology.meter[30] eventInterval 0.5s
attr unit s
par DNP3NetworkTopology.meter[30] stopGenerationTime 300s
attr unit s
scalar DNP3NetworkTopology.meter[30] retransmissions 72
scalar DNP3NetworkTopology.meter[30] generatedEventPackets 133
par DNP3NetworkTopology.meter[31] typename "\"basicbaseline.DNP3SmartMeter\""
par DNP3NetworkTopology.meter[31] meterId 31
par DNP3NetworkTopology.meter[31] totalPackets 500
par DNP3NetworkTopology.meter[31] eventBytes 542
par DNP3NetworkTopology.meter[31] ackTimeout 2s
attr unit s
par DNP3NetworkTopology.meter[31] eventInterval 0.5s
attr unit s
par DNP3NetworkTopology.meter[31] stopGenerationTime 300s
attr unit s
scalar DNP3NetworkTopology.meter[31] retransmissions 79
scalar DNP3NetworkTopology.meter[31] generatedEventPackets 123
par DNP3NetworkTopology.meter[32] typename "\"basicbaseline.DNP3SmartMeter\""
par DNP3NetworkTopology.meter[32] meterId 32
par DNP3NetworkTopology.meter[32] totalPackets 500
par DNP3NetworkTopology.meter[32] eventBytes 542
par DNP3NetworkTopology.meter[32] ackTimeout 2s
attr unit s
par DNP3NetworkTopology.meter[32] eventInterval 0.5s
attr unit s
par DNP3NetworkTopology.meter[32] stopGenerationTime 300s
attr unit s
scalar DNP3NetworkTopology.meter[32] retransmissions 79
scalar DNP3NetworkTopology.meter[32] generatedEventPackets 121
par DNP3NetworkTopology.meter[33] typename "\"basicbaseline.DNP3SmartMeter\""
par DNP3NetworkTopology.meter[33] meterId 33
par DNP3NetworkTopology.meter[33] totalPackets 500
par DNP3NetworkTopology.meter[33] eventBytes 542
par DNP3NetworkTopology.meter[33] ackTimeout 2s
attr unit s
par DNP3NetworkTopology.meter[33] eventInterval 0.5s
attr unit s
par DNP3NetworkTopology.meter[33] stopGenerationTime 300s
attr unit s
scalar DNP3NetworkTopology.meter[33] retransmissions 80
scalar DNP3NetworkTopology.meter[33] generatedEventPackets 121
par DNP3NetworkTopology.meter[34] typename "\"basicbaseline.DNP3SmartMeter\""
par DNP3NetworkTopology.meter[34] meterId 34
par DNP3NetworkTopology.meter[34] totalPackets 500
par DNP3NetworkTopology.meter[34] eventBytes 542
par DNP3NetworkTopology.meter[34] ackTimeout 2s
attr unit s
par DNP3NetworkTopology.meter[34] eventInterval 0.5s
attr unit s
par DNP3NetworkTopology.meter[34] stopGenerationTime 300s
attr unit s
scalar DNP3NetworkTopology.meter[34] retransmissions 80
scalar DNP3NetworkTopology.meter[34] generatedEventPackets 121
par DNP3NetworkTopology.meter[35] typename "\"basicbaseline.DNP3SmartMeter\""
par DNP3NetworkTopology.meter[35] meterId 35
par DNP3NetworkTopology.meter[35] totalPackets 500
par DNP3NetworkTopology.meter[35] eventBytes 542
par DNP3NetworkTopology.meter[35] ackTimeout 2s
attr unit s
par DNP3NetworkTopology.meter[35] eventInterval 0.5s
attr unit s
par DNP3NetworkTopology.meter[35] stopGenerationTime 300s
attr unit s
scalar DNP3NetworkTopology.meter[35] retransmissions 80
scalar DNP3NetworkTopology.meter[35] generatedEventPackets 121
par DNP3NetworkTopology.meter[36] typename "\"basicbaseline.DNP3SmartMeter\""
par DNP3NetworkTopology.meter[36] meterId 36
par DNP3NetworkTopology.meter[36] totalPackets 500
par DNP3NetworkTopology.meter[36] eventBytes 542
par DNP3NetworkTopology.meter[36] ackTimeout 2s
attr unit s
par DNP3NetworkTopology.meter[36] eventInterval 0.5s
attr unit s
par DNP3NetworkTopology.meter[36] stopGenerationTime 300s
attr unit s
scalar DNP3NetworkTopology.meter[36] retransmissions 80
scalar DNP3NetworkTopology.meter[36] generatedEventPackets 121
par DNP3NetworkTopology.meter[37] typename "\"basicbaseline.DNP3SmartMeter\""
par DNP3NetworkTopology.meter[37] meterId 37
par DNP3NetworkTopology.meter[37] totalPackets 500
par DNP3NetworkTopology.meter[37] eventBytes 542
par DNP3NetworkTopology.meter[37] ackTimeout 2s
attr unit s
par DNP3NetworkTopology.meter[37] eventInterval 0.5s
attr unit s
par DNP3NetworkTopology.meter[37] stopGenerationTime 300s
attr unit s
scalar DNP3NetworkTopology.meter[37] retransmissions 79
scalar DNP3NetworkTopology.meter[37] generatedEventPackets 120
par DNP3NetworkTopology.meter[38] typename "\"basicbaseline.DNP3SmartMeter\""
par DNP3NetworkTopology.meter[38] meterId 38
par DNP3NetworkTopology.meter[38] totalPackets 500
par DNP3NetworkTopology.meter[38] eventBytes 542
par DNP3NetworkTopology.meter[38] ackTimeout 2s
attr unit s
par DNP3NetworkTopology.meter[38] eventInterval 0.5s
attr unit s
par DNP3NetworkTopology.meter[38] stopGenerationTime 300s
attr unit s
scalar DNP3NetworkTopology.meter[38] retransmissions 79
scalar DNP3NetworkTopology.meter[38] generatedEventPackets 120
par DNP3NetworkTopology.meter[39] typename "\"basicbaseline.DNP3SmartMeter\""
par DNP3NetworkTopology.meter[39] meterId 39
par DNP3NetworkTopology.meter[39] totalPackets 500
par DNP3NetworkTopology.meter[39] eventBytes 542
par DNP3NetworkTopology.meter[39] ackTimeout 2s
attr unit s
par DNP3NetworkTopology.meter[39] eventInterval 0.5s
attr unit s
par DNP3NetworkTopology.meter[39] stopGenerationTime 300s
attr unit s
scalar DNP3NetworkTopology.meter[39] retransmissions 79
scalar DNP3NetworkTopology.meter[39] generatedEventPackets 121
par DNP3NetworkTopology.meter[40] typename "\"basicbaseline.DNP3SmartMeter\""
par DNP3NetworkTopology.meter[40] meterId 40
par DNP3NetworkTopology.meter[40] totalPackets 500
par DNP3NetworkTopology.meter[40] eventBytes 542
par DNP3NetworkTopology.meter[40] ackTimeout 2s
attr unit s
par DNP3NetworkTopology.meter[40] eventInterval 0.5s
attr unit s
par DNP3NetworkTopology.meter[40] stopGenerationTime 300s
attr unit s
scalar DNP3NetworkTopology.meter[40] retransmissions 79
scalar DNP3NetworkTopology.meter[40] generatedEventPackets 121
par DNP3NetworkTopology.meter[41] typename "\"basicbaseline.DNP3SmartMeter\""
par DNP3NetworkTopology.meter[41] meterId 41
par DNP3NetworkTopology.meter[41] totalPackets 500
par DNP3NetworkTopology.meter[41] eventBytes 542
par DNP3NetworkTopology.meter[41] ackTimeout 2s
attr unit s
par DNP3NetworkTopology.meter[41] eventInterval 0.5s
attr unit s
par DNP3NetworkTopology.meter[41] stopGenerationTime 300s
attr unit s
scalar DNP3NetworkTopology.meter[41] retransmissions 79
scalar DNP3NetworkTopology.meter[41] generatedEventPackets 122
par DNP3NetworkTopology.meter[42] typename "\"basicbaseline.DNP3SmartMeter\""
par DNP3NetworkTopology.meter[42] meterId 42
par DNP3NetworkTopology.meter[42] totalPackets 500
par DNP3NetworkTopology.meter[42] eventBytes 542
par DNP3NetworkTopology.meter[42] ackTimeout 2s
attr unit s
par DNP3NetworkTopology.meter[42] eventInterval 0.5s
attr unit s
par DNP3NetworkTopology.meter[42] stopGenerationTime 300s
attr unit s
scalar DNP3NetworkTopology.meter[42] retransmissions 79
scalar DNP3NetworkTopology.meter[42] generatedEventPackets 122
par DNP3NetworkTopology.meter[43] typename "\"basicbaseline.DNP3SmartMeter\""
par DNP3NetworkTopology.meter[43] meterId 43
par DNP3NetworkTopology.meter[43] totalPackets 500
par DNP3NetworkTopology.meter[43] eventBytes 542
par DNP3NetworkTopology.meter[43] ackTimeout 2s
attr unit s
par DNP3NetworkTopology.meter[43] eventInterval 0.5s
attr unit s
par DNP3NetworkTopology.meter[43] stopGenerationTime 300s
attr unit s
scalar DNP3NetworkTopology.meter[43] retransmissions 79
scalar DNP3NetworkTopology.meter[43] generatedEventPackets 122
par DNP3NetworkTopology.meter[44] typename "\"basicbaseline.DNP3SmartMeter\""
par DNP3NetworkTopology.meter[44] meterId 44
par DNP3NetworkTopology.meter[44] totalPackets 500
par DNP3NetworkTopology.meter[44] eventBytes 542
par DNP3NetworkTopology.meter[44] ackTimeout 2s
attr unit s
par DNP3NetworkTopology.meter[44] eventInterval 0.5s
attr unit s
par DNP3NetworkTopology.meter[44] stopGenerationTime 300s
attr unit s
scalar DNP3NetworkTopology.meter[44] retransmissions 79
scalar DNP3NetworkTopology.meter[44] generatedEventPackets 122
par DNP3NetworkTopology.meter[45] typename "\"basicbaseline.DNP3SmartMeter\""
par DNP3NetworkTopology.meter[45] meterId 45
par DNP3NetworkTopology.meter[45] totalPackets 500
par DNP3NetworkTopology.meter[45] eventBytes 542
par DNP3NetworkTopology.meter[45] ackTimeout 2s
attr unit s
par DNP3NetworkTopology.meter[45] eventInterval 0.5s
attr unit s
par DNP3NetworkTopology.meter[45] stopGenerationTime 300s
attr unit s
scalar DNP3NetworkTopology.meter[45] retransmissions 79
scalar DNP3NetworkTopology.meter[45] generatedEventPackets 122
par DNP3NetworkTopology.meter[46] typename "\"basicbaseline.DNP3SmartMeter\""
par DNP3NetworkTopology.meter[46] meterId 46
par DNP3NetworkTopology.meter[46] totalPackets 500
par DNP3NetworkTopology.meter[46] eventBytes 542
par DNP3NetworkTopology.meter[46] ackTimeout 2s
attr unit s
par DNP3NetworkTopology.meter[46] eventInterval 0.5s
attr unit s
par DNP3NetworkTopology.meter[46] stopGenerationTime 300s
attr unit s
scalar DNP3NetworkTopology.meter[46] retransmissions 79
scalar DNP3NetworkTopology.meter[46] generatedEventPackets 122
par DNP3NetworkTopology.meter[47] typename "\"basicbaseline.DNP3SmartMeter\""
par DNP3NetworkTopology.meter[47] meterId 47
par DNP3NetworkTopology.meter[47] totalPackets 500
par DNP3NetworkTopology.meter[47] eventBytes 542
par DNP3NetworkTopology.meter[47] ackTimeout 2s
attr unit s
par DNP3NetworkTopology.meter[47] eventInterval 0.5s
attr unit s
par DNP3NetworkTopology.meter[47] stopGenerationTime 300s
attr unit s
scalar DNP3NetworkTopology.meter[47] retransmissions 79
scalar DNP3NetworkTopology.meter[47] generatedEventPackets 122
par DNP3NetworkTopology.meter[48] typename "\"basicbaseline.DNP3SmartMeter\""
par DNP3NetworkTopology.meter[48] meterId 48
par DNP3NetworkTopology.meter[48] totalPackets 500
par DNP3NetworkTopology.meter[48] eventBytes 542
par DNP3NetworkTopology.meter[48] ackTimeout 2s
attr unit s
par DNP3NetworkTopology.meter[48] eventInterval 0.5s
attr unit s
par DNP3NetworkTopology.meter[48] stopGenerationTime 300s
attr unit s
scalar DNP3NetworkTopology.meter[48] retransmissions 75
scalar DNP3NetworkTopology.meter[48] generatedEventPackets 123
par DNP3NetworkTopology.meter[49] typename "\"basicbaseline.DNP3SmartMeter\""
par DNP3NetworkTopology.meter[49] meterId 49
par DNP3NetworkTopology.meter[49] totalPackets 500
par DNP3NetworkTopology.meter[49] eventBytes 542
par DNP3NetworkTopology.meter[49] ackTimeout 2s
attr unit s
par DNP3NetworkTopology.meter[49] eventInterval 0.5s
attr unit s
par DNP3NetworkTopology.meter[49] stopGenerationTime 300s
attr unit s
scalar DNP3NetworkTopology.meter[49] retransmissions 74
scalar DNP3NetworkTopology.meter[49] generatedEventPackets 121
par DNP3NetworkTopology.Concatenator typename "\"basicbaseline.Concatenator\""
scalar DNP3NetworkTopology.Concatenator droppedPackets 3012
scalar DNP3NetworkTopology.Concatenator queueLength:mean 40.613756112952
attr recordingmode mean
attr source queueLength
attr title "Queue Length, mean"
scalar DNP3NetworkTopology.Concatenator queueLength:max 50
attr recordingmode max
attr source queueLength
attr title "Queue Length, max"
scalar DNP3NetworkTopology.Concatenator queueLength:timeavg 36.786142208812
attr recordingmode timeavg
attr source queueLength
attr title "Queue Length, timeavg"
par DNP3NetworkTopology.distAuto typename "\"basicbaseline.DNP3DA\""
par DNP3NetworkTopology.distAuto numMeters 50
par DNP3NetworkTopology.distAuto processingDelay 0.01s
attr unit s
scalar DNP3NetworkTopology.distAuto receivedEventPackets 8046
scalar DNP3NetworkTopology.distAuto eventBytesTotal 4360932
scalar DNP3NetworkTopology.distAuto ackBytesTotal 547128
scalar DNP3NetworkTopology.distAuto confirmBytesTotal 466668
scalar DNP3NetworkTopology.distAuto tcpAckBytesTotal 452458
scalar DNP3NetworkTopology.distAuto packetDelay:mean 1.5899910784626
attr recordingmode mean
attr source packetDelay
attr title "Packet Delay, mean"
scalar DNP3NetworkTopology.distAuto packetDelay:max 3.307082692308
attr recordingmode max
attr source packetDelay
attr title "Packet Delay, max"
scalar DNP3NetworkTopology.distAuto packetDelay:min 0.107582692308
attr recordingmode min
attr source packetDelay
attr title "Packet Delay, min"
par DNP3NetworkTopology typename "\"basicbaseline.simulations.DNP3NetworkTopology\""
par DNP3NetworkTopology numMeters 50

